          14
 frame:          695
C     0.9    0.0   -0.1
C     2.5    0.0   -0.0
C     3.1   -1.2    0.7
O     3.5   -0.8    2.0
C     3.6    0.5    2.0
C     3.0    1.1    0.9
H     0.6   -0.8   -0.7
H     0.6    0.9   -0.5
H     0.5   -0.1    0.9
H     2.9    0.1   -1.1
H     4.0   -1.6    0.1
H     2.4   -2.1    0.8
H     4.0    1.0    2.9
H     3.0    2.2    0.7
