          17
 frame:         2209
C     3.5   -1.1    1.9
C     3.4   -0.8    0.4
C     3.1   -1.8   -0.5
C     3.5    0.6   -0.0
C     5.0    1.1    0.2
N     5.9    0.3   -0.4
N     5.3    2.2    0.9
H     4.4   -0.8    2.3
H     3.4   -2.2    2.1
H     2.7   -0.6    2.4
H     3.0   -2.8   -0.2
H     3.0   -1.5   -1.6
H     2.9    1.3    0.6
H     3.3    0.8   -1.1
H     5.7   -0.6   -0.6
H     6.9    0.6   -0.2
H     4.5    2.7    1.2
