          12
 frame:          347
C     0.5    1.4    0.3
C     1.1    0.3   -0.5
C     1.0   -1.1    0.2
N    -0.5   -1.3    0.4
C    -1.1   -0.3   -0.1
N    -0.4    0.7   -0.8
H     0.7    2.5    0.0
H     0.2    1.3    1.3
H     1.8    0.5   -1.3
H     1.5   -1.2    1.1
H     1.4   -1.8   -0.5
H    -2.2   -0.3   -0.1
