          15
 frame:          531
C     1.1    0.3   -0.4
N     2.4   -0.0    0.1
C     3.1   -1.1   -0.6
C     3.5    0.3   -0.9
C     4.7    0.9   -0.4
C     5.5    1.7   -1.1
H     0.8    1.3   -0.2
H     0.4   -0.3    0.2
H     0.9    0.1   -1.5
H     2.5   -1.7   -1.4
H     3.7   -1.7    0.1
H     3.2    0.7   -1.9
H     5.0    0.6    0.6
H     5.3    2.0   -2.1
H     6.4    2.1   -0.7
