          21
 frame:         1490
C     1.8   -0.2   -1.4
C     2.4    0.2    0.0
C     3.0    1.6    0.0
C     2.1    2.8    0.0
C     1.6    3.2    1.4
C     4.4    1.6    0.1
C     5.2    2.9    0.1
H     1.3   -1.2   -1.3
H     2.6   -0.2   -2.1
H     1.0    0.6   -1.7
H     3.1   -0.6    0.3
H     1.5    0.2    0.8
H     1.2    2.5   -0.6
H     2.6    3.6   -0.5
H     1.1    2.3    1.9
H     0.9    4.0    1.4
H     2.5    3.5    2.0
H     4.9    0.7    0.1
H     4.6    3.8   -0.0
H     5.9    2.9   -0.8
H     5.8    3.0    1.0
