          17
 frame:         3778
C     2.8   -0.9   -1.1
C     2.5   -0.0    0.1
C     3.0    1.4   -0.0
C     2.5    2.3    1.2
O     2.9    3.6    1.1
C     4.5    1.5   -0.0
C     5.7    1.5   -0.0
H     2.4   -1.9   -1.0
H     3.9   -1.0   -1.2
H     2.4   -0.5   -2.1
H     2.8   -0.5    1.0
H     1.4    0.0    0.2
H     2.6    1.9   -0.9
H     2.8    1.8    2.1
H     1.4    2.3    1.1
H     3.9    3.6    1.1
H     6.7    1.6   -0.0
