          18
 frame:         4648
C     0.8    0.1   -0.2
C     2.3   -0.0    0.1
C     2.6   -0.1    1.6
C     3.3   -0.8   -0.8
N     2.9   -1.5   -2.0
C     3.3    0.7   -0.8
O     4.3    1.4   -0.2
H     0.7    0.1   -1.3
H     0.4    1.0    0.2
H     0.3   -0.8    0.2
H     3.7   -0.1    1.8
H     2.2   -0.9    2.1
H     2.2    0.8    2.1
H     4.1   -1.3   -0.3
H     2.3   -1.0   -2.6
H     2.3   -2.4   -1.8
H     2.8    1.2   -1.7
H     5.1    1.3   -0.8
