          15
 frame:         3316
C     0.9    0.1    0.1
C     2.4   -0.0    0.0
C     3.2    1.0    0.9
O     4.0   -0.1    1.5
C     3.1   -1.1    0.9
C     3.8   -2.2    0.2
C     4.3   -3.1   -0.4
H     0.4   -0.8   -0.5
H     0.5    1.0   -0.4
H     0.5    0.1    1.1
H     2.8   -0.0   -1.0
H     2.6    1.5    1.7
H     3.8    1.7    0.4
H     2.4   -1.5    1.7
H     4.8   -3.9   -0.9
