          17
 frame:         3844
C     4.1   -0.5    2.5
C     3.5   -1.0    1.2
C     2.6   -1.9    1.2
O     3.9   -0.4    0.1
C     5.1    0.2   -0.0
C     6.4   -0.6   -0.2
C     5.8    0.2   -1.4
H     5.2   -0.6    2.5
H     3.6   -1.0    3.4
H     3.9    0.6    2.6
H     2.2   -2.4    2.1
H     2.2   -2.3    0.2
H     5.2    1.2    0.6
H     6.2   -1.7   -0.3
H     7.3   -0.3    0.3
H     6.3    1.1   -1.7
H     5.3   -0.3   -2.1
