          16
 frame:         2971
N     1.0   -0.1    0.1
C     2.5   -0.1   -0.1
C     2.9    1.3   -0.0
C     3.3    2.5    0.0
C     3.8    3.9    0.1
C     2.7    4.9   -0.1
C     2.4    5.9    0.7
H     0.7   -1.1   -0.0
H     0.5    0.4   -0.6
H     2.8   -0.5   -1.0
H     2.9   -0.6    0.7
H     4.5    4.0   -0.7
H     4.3    4.1    1.0
H     2.1    4.7   -1.1
H     3.0    6.0    1.6
H     1.6    6.6    0.5
