          15
 frame:         3438
C     1.0    0.1    0.0
C     2.5   -0.0    0.0
O     3.1    1.1    0.8
C     4.4    0.6    1.2
O     4.2   -0.8    1.4
C     3.1   -1.2    0.7
C     2.7   -2.5    0.6
H     0.6   -0.7   -0.6
H     0.7    1.1   -0.4
H     0.6    0.0    1.1
H     2.9    0.1   -1.0
H     5.1    0.7    0.3
H     4.7    1.1    2.1
H     1.8   -2.8    0.0
H     3.3   -3.3    1.1
