          14
 frame:         4551
C    -1.6    0.7    0.6
C    -1.1   -0.3   -0.4
C     0.1   -1.2    0.2
O     1.3   -1.1   -0.6
C     1.2   -0.2    0.6
C     0.8    1.2    0.2
N    -0.6    1.1   -0.4
H    -2.6    1.1    0.4
H    -1.3    0.6    1.6
H    -1.6   -0.7   -1.2
H    -0.1   -2.1    0.7
H     1.9   -0.5    1.4
H     0.8    1.8    1.1
H     1.4    1.6   -0.6
