          19
 frame:         3981
C     2.4   -0.8    1.3
C     2.5   -0.0   -0.0
O     2.0   -0.5   -1.0
C     3.2    1.4   -0.0
C     2.9    2.1   -1.3
C     2.7    2.2    1.2
C     4.7    1.1    0.1
H     3.2   -0.7    1.9
H     2.1   -1.8    1.1
H     1.5   -0.3    1.9
H     3.2    1.5   -2.2
H     3.5    3.0   -1.3
H     1.9    2.3   -1.4
H     3.0    1.8    2.2
H     1.6    2.4    1.1
H     3.2    3.2    1.2
H     5.0    0.6    1.1
H     5.3    2.0    0.1
H     5.1    0.5   -0.7
