          15
 frame:         1790
C     1.0   -0.1    0.4
C     2.4    0.0   -0.0
C     2.8    1.3   -0.9
C     4.2    1.1   -1.4
N     4.7   -0.0   -1.7
N     3.8   -1.1   -1.7
C     2.8   -1.1   -0.9
H     0.7    0.8    1.1
H     0.8   -1.0    1.0
H     0.3   -0.1   -0.5
H     3.1    0.1    0.9
H     2.6    2.2   -0.3
H     2.0    1.3   -1.7
H     4.8    2.0   -1.4
H     2.2   -2.0   -0.9
