          12
 frame:         5129
C     1.0   -0.0    0.0
C     2.4    0.0    0.1
C     3.6    0.1    0.1
C     5.1   -0.0    0.1
O     5.7   -1.1    0.3
N     5.8    1.2   -0.1
O     5.1    2.4    0.3
H     0.5    0.7    0.8
H     0.6   -1.1    0.2
H     0.6    0.2   -1.0
H     6.7    1.2    0.3
H     5.0    2.8   -0.6
