          21
 frame:         2391
C     0.9   -0.3    0.1
C     2.5   -0.3    0.1
C     3.0   -1.0    1.3
N     3.0   -1.1   -1.1
C     3.0    1.1   -0.1
C     4.5    1.3   -0.1
N     4.8    2.7   -0.3
H     0.5    0.2   -0.8
H     0.5    0.3    0.9
H     0.5   -1.3    0.2
H     2.7   -0.4    2.2
H     4.1   -1.1    1.3
H     2.5   -2.0    1.5
H     2.5   -0.8   -2.0
H     2.6   -2.1   -1.0
H     2.5    1.8    0.7
H     2.6    1.5   -1.1
H     5.0    0.6   -0.8
H     4.9    1.0    0.9
H     4.6    3.0   -1.2
H     5.9    2.8   -0.2
