          15
 frame:         3820
C     1.0    0.0   -0.0
C     2.4    0.0   -0.0
C     3.6   -0.0    0.0
C     5.1   -0.0   -0.0
O     5.7   -0.7   -1.2
C     5.7    1.4    0.1
O     7.1    1.4    0.0
H     0.6    1.1   -0.0
H     0.6   -0.5    0.9
H     0.6   -0.5   -0.9
H     5.5   -0.6    0.8
H     5.0   -0.5   -1.9
H     5.4    1.9    1.0
H     5.2    2.0   -0.7
H     7.3    0.8   -0.7
