          19
 frame:         4431
O     2.6    1.8   -2.1
C     2.3    2.2   -0.8
C     3.0    1.2    0.2
C     4.5    1.3    0.1
C     5.2    2.5    0.6
C     6.3    1.6    1.2
C     5.3    0.4    1.1
H     2.2    2.4   -2.7
H     1.2    2.2   -0.6
H     2.6    3.2   -0.6
H     2.6    0.2   -0.0
H     2.6    1.5    1.2
H     4.8    1.0   -0.9
H     4.7    3.0    1.4
H     5.5    3.3   -0.1
H     7.1    1.4    0.5
H     6.8    1.8    2.2
H     5.6   -0.6    0.8
H     4.7    0.3    2.1
