          17
 frame:         3467
C     2.5   -0.5    1.5
C     2.6    0.0    0.0
C     3.2    1.4   -0.1
C     4.3    1.8   -0.6
C     4.5    3.3   -0.4
C     3.0    3.6    0.1
O     2.4    2.4    0.5
H     2.1   -1.5    1.5
H     1.8    0.2    2.0
H     3.5   -0.5    2.0
H     1.7   -0.0   -0.5
H     3.3   -0.7   -0.5
H     5.1    1.2   -1.1
H     5.2    3.6    0.3
H     4.7    3.9   -1.3
H     2.4    4.1   -0.7
H     3.0    4.3    0.9
