          16
 frame:          772
C     2.3   -0.5    1.4
C     2.2    0.2    0.1
C     2.7    1.6   -0.0
C     2.0    2.7   -0.2
O     4.1    1.5    0.2
C     4.8    2.8    0.2
H     1.8   -1.5    1.4
H     1.7    0.1    2.2
H     3.3   -0.6    1.8
H     1.1    0.2   -0.3
H     2.7   -0.5   -0.7
H     0.9    2.6   -0.4
H     2.5    3.7   -0.2
H     5.8    2.5    0.4
H     4.4    3.4    1.0
H     4.7    3.3   -0.8
