          20
 frame:         5500
C     2.0    3.1   -1.8
C     2.8    1.9   -1.3
O     4.0    2.5   -0.6
C     4.8    1.4   -0.1
C     6.0    2.1    0.6
N     5.5    2.8    1.8
C     6.6    3.5    2.5
H     1.1    2.7   -2.3
H     2.5    3.7   -2.5
H     1.6    3.8   -0.9
H     3.1    1.3   -2.1
H     2.2    1.3   -0.6
H     5.2    0.8   -0.9
H     4.2    0.8    0.6
H     6.5    2.7   -0.1
H     6.6    1.3    1.0
H     4.8    3.5    1.5
H     7.1    4.2    1.8
H     7.3    2.8    2.9
H     6.1    4.2    3.3
