          12
 frame:         7016
C     2.8   -1.3    0.4
C     2.4   -0.1    0.1
C     3.1    1.2    0.1
N     2.6    2.4   -0.2
C     3.5    3.4   -0.2
C     4.8    3.0    0.1
S     4.9    1.2    0.3
H     2.2   -2.1    0.4
H     3.9   -1.5    0.6
H     1.3    0.1   -0.0
H     3.2    4.4   -0.3
H     5.7    3.6    0.1
