          21
 frame:         1214
C     1.1    0.9    1.1
C     2.2    1.3    0.1
C     3.2    2.2    0.7
C     4.3    2.6   -0.4
C     5.4    3.5    0.2
C     6.2    4.3   -0.8
C     5.2    5.0    0.2
H     0.3    0.3    0.7
H     0.6    1.9    1.5
H     1.5    0.4    2.0
H     1.7    1.8   -0.8
H     2.6    0.4   -0.3
H     3.7    1.7    1.5
H     2.8    3.1    1.0
H     3.9    3.0   -1.2
H     4.8    1.6   -0.7
H     6.0    3.0    1.0
H     6.0    4.3   -1.8
H     7.3    4.5   -0.5
H     5.6    5.5    1.0
H     4.3    5.3   -0.2
