          16
 frame:         1525
C     0.6    1.2    0.7
C    -0.9    0.8    0.4
C    -0.9   -0.0   -0.9
C     0.6   -0.0   -1.4
C     1.2   -0.0   -0.0
N     0.6   -1.2    0.6
C    -0.8   -0.7    0.5
H     0.8    2.2    0.2
H     0.8    1.3    1.7
H    -1.7    1.4    0.8
H    -1.8   -0.1   -1.5
H     0.8   -0.9   -2.0
H     0.8    0.9   -2.0
H     2.3   -0.1    0.0
H     0.8   -1.2    1.6
H    -1.6   -1.4    0.8
