          12
 frame:          264
C     1.3   -0.4   -0.8
C     2.5   -0.1   -0.2
C     3.2    1.1   -0.3
C     4.4    1.4    0.2
C     5.1    2.6    0.1
C     5.7    3.6    0.1
H     0.8   -1.4   -0.7
H     0.7    0.4   -1.3
H     3.1   -1.0    0.3
H     2.7    1.9   -0.8
H     5.0    0.5    0.7
H     6.2    4.6    0.1
