          13
 frame:         4739
C     0.9    0.1    0.0
C     2.4    0.1   -0.0
C     3.3    1.1   -0.1
N     4.6    0.7   -0.2
O     4.6   -0.7   -0.1
C     3.2   -1.1   -0.0
N     3.0   -2.4    0.0
H     0.5    1.1    0.0
H     0.6   -0.5    0.9
H     0.5   -0.5   -0.8
H     3.1    2.2   -0.1
H     5.3    1.1    0.4
H     2.0   -2.6    0.1
