          14
 frame:         7160
N     3.6   -1.0   -0.5
S     2.6    0.2    0.2
O     1.5    0.5   -0.7
O     2.4   -0.2    1.6
C     3.7    1.6    0.2
C     3.8    2.4   -1.1
C     3.1    3.0    0.1
H     3.6   -1.8    0.1
H     3.2   -1.3   -1.4
H     4.6    1.4    0.8
H     3.2    2.1   -1.9
H     4.8    2.8   -1.3
H     3.6    3.7    0.7
H     2.0    3.0    0.1
