          17
 frame:         5818
C     1.2    0.3    1.5
N     2.4    1.0    2.1
C     3.5    1.2    1.2
O     4.5    2.0    1.8
C     4.5    2.4    3.1
N     3.6    0.7    0.1
C     4.8    0.8   -0.7
H     0.5    0.2    2.3
H     1.6   -0.7    1.2
H     0.8    0.8    0.6
H     2.1    1.9    2.6
H     5.4    2.8    3.4
H     4.3    1.5    3.8
H     3.7    3.2    3.4
H     4.8    0.1   -1.5
H     5.7    0.7   -0.0
H     4.9    1.8   -1.1
