          20
 frame:         5677
C     1.3    1.9    0.9
N     2.7    2.0    1.2
C     3.6    1.4    0.2
C     5.0    1.6    0.5
C     5.7    3.0    0.4
C     5.3    4.0    1.5
O     3.9    4.5    1.3
H     0.7    2.3    1.8
H     0.9    0.9    0.7
H     1.1    2.6    0.0
H     2.9    1.5    2.1
H     3.3    2.0   -0.7
H     3.3    0.4    0.0
H     5.6    0.9   -0.1
H     5.2    1.2    1.6
H     5.5    3.4   -0.6
H     6.8    2.9    0.5
H     5.9    4.9    1.4
H     5.4    3.6    2.5
H     3.4    3.7    1.4
