          14
 frame:          778
C     0.7   -0.7   -0.3
C     2.1   -0.2    0.0
C     2.2    1.3   -0.0
C     3.6    1.9    0.3
O     3.7    3.2    0.3
O     4.5    1.2    0.6
H     0.6   -1.8   -0.3
H     0.3   -0.4   -1.3
H    -0.1   -0.3    0.4
H     2.8   -0.6   -0.7
H     2.4   -0.6    1.0
H     1.5    1.8    0.7
H     1.9    1.7   -1.0
H     2.8    3.6    0.0
