          20
 frame:         5720
C     1.0   -0.4    0.0
N     2.4   -0.2    0.3
C     2.7    1.3    0.4
C     2.2    1.9    1.7
C     4.2    1.4    0.3
O     4.7    0.9   -0.9
C     6.1    0.9   -1.0
H     0.9   -1.5   -0.2
H     0.6    0.1   -0.9
H     0.3   -0.2    0.9
H     3.0   -0.6   -0.4
H     2.3    1.8   -0.5
H     2.6    1.4    2.6
H     1.1    1.8    1.7
H     2.5    3.0    1.7
H     4.7    0.9    1.2
H     4.5    2.5    0.4
H     6.4    0.5   -2.0
H     6.6    0.3   -0.2
H     6.5    2.0   -0.9
