          12
 frame:         7128
N     0.9    0.0   -0.2
C     2.3    0.0   -0.1
C     3.2    1.1   -0.1
N     4.5    0.6    0.0
C     4.5   -0.7    0.0
C     3.1   -1.1   -0.0
Cl    2.5   -2.8   -0.0
H     0.5    0.8    0.3
H     0.5   -0.9    0.0
H     3.0    2.2   -0.1
H     5.3    1.2    0.1
H     5.4   -1.3    0.1
