          14
 frame:         6826
O     1.0    0.1   -0.5
N     2.4   -0.0    0.0
C     2.9    1.1    0.1
C     4.3    1.3    0.7
C     4.6    2.8    0.6
C     3.3    3.4    0.1
C     2.4    2.5   -0.2
H     0.8   -0.9   -0.5
H     5.0    0.7    0.0
H     4.4    0.8    1.7
H     5.4    3.1   -0.0
H     4.8    3.2    1.6
H     3.2    4.5   -0.0
H     1.4    2.6   -0.6
