          14
 frame:         5531
C     0.9   -0.5    0.1
C     2.4   -0.7    0.1
O     2.9   -1.9   -0.1
C     3.3    0.4    0.4
N     4.7    0.0    0.5
C     5.7    0.8    0.8
O     5.6    2.0    1.1
H     0.7    0.5   -0.5
H     0.6   -0.3    1.1
H     0.4   -1.3   -0.3
H     3.0    0.9    1.4
H     3.2    1.2   -0.4
H     4.9   -1.0    0.3
H     6.7    0.3    0.8
