          17
 frame:         4223
C     2.4    0.1   -0.8
O     3.7    0.6   -0.7
C     3.7    2.0   -0.3
C     5.1    2.5   -0.2
C     5.2    3.9    0.3
C     6.6    4.5    0.3
O     4.3    4.6    0.6
H     2.5   -0.9   -1.2
H     1.8    0.7   -1.6
H     1.8    0.1    0.1
H     3.2    2.1    0.7
H     3.1    2.6   -1.0
H     5.6    2.4   -1.2
H     5.7    1.8    0.5
H     7.3    3.8    0.8
H     6.6    5.5    0.8
H     7.0    4.6   -0.7
