          15
 frame:         1121
O     1.0    0.0    0.1
C     2.4   -0.0    0.0
C     3.0    1.1    0.9
C     4.4    0.6    1.2
N     4.2   -0.8    1.4
C     3.0   -1.3    0.7
H     0.6   -0.6   -0.6
H     2.8    0.1   -1.0
H     2.4    1.2    1.8
H     3.0    2.1    0.3
H     5.0    0.8    0.3
H     4.8    1.1    2.0
H     5.0   -1.4    1.3
H     3.3   -2.0   -0.1
H     2.3   -1.8    1.3
