          12
 frame:         7162
N     1.0    0.3    0.0
S     2.7   -0.0    0.0
O     3.0   -0.6    1.3
O     3.0   -0.7   -1.3
C     3.4    1.7   -0.0
C     4.8    1.7   -0.0
C     6.0    1.7   -0.0
H     0.6   -0.1   -0.8
H     0.6   -0.1    0.8
H     3.0    2.2    0.9
H     3.0    2.1   -0.9
H     7.1    1.6    0.0
