          12
 frame:         6108
N     1.0    0.1   -0.1
C     2.4   -0.1   -0.0
C     3.2   -1.2   -0.0
C     4.6   -0.7    0.0
O     5.6   -1.4    0.0
C     4.5    0.8    0.0
C     3.2    1.2   -0.0
H     0.4   -0.8    0.0
H     0.6    1.0    0.1
H     2.9   -2.2   -0.0
H     5.4    1.4    0.0
H     2.8    2.2   -0.0
