          17
 frame:         4153
C     1.1    0.1   -0.3
O     2.5    0.2   -0.2
C     3.0    1.4   -0.1
C     2.3    2.5    0.0
C     4.5    1.4   -0.0
C     5.3    0.4   -0.1
C     6.8    0.4   -0.0
H     0.9   -1.0   -0.4
H     0.7    0.6   -1.1
H     0.6    0.4    0.6
H     1.2    2.6   -0.0
H     2.8    3.5    0.2
H     4.9    2.4    0.1
H     4.8   -0.6   -0.2
H     7.1    1.4    0.1
H     7.2   -0.0   -0.9
H     7.1   -0.2    0.8
