          18
 frame:         5404
C     1.1   -0.9    0.2
C     2.4   -0.2   -0.0
N     3.2   -0.9   -1.1
C     2.4    1.2   -0.4
O     1.6    1.4   -1.6
C     1.8    2.1    0.7
O     1.7    3.5    0.3
H     0.6   -0.4    1.1
H     1.2   -1.9    0.4
H     0.4   -0.7   -0.6
H     3.1   -0.3    0.9
H     2.7   -0.8   -2.0
H     3.2   -1.9   -0.9
H     3.4    1.6   -0.6
H     1.4    2.4   -1.6
H     2.4    2.0    1.6
H     0.8    1.8    0.9
H     2.6    3.9    0.2
