          17
 frame:         1059
C     0.9   -0.7    0.5
N     2.1   -0.1   -0.1
C     2.9   -1.1   -0.8
C     1.8    1.1   -0.9
C     1.5    2.3   -0.1
O     2.5    2.5    0.9
H     0.4    0.0    1.1
H     1.2   -1.5    1.2
H     0.3   -1.1   -0.3
H     3.2   -1.9   -0.1
H     3.9   -0.6   -1.2
H     2.4   -1.6   -1.7
H     1.0    0.8   -1.7
H     2.7    1.3   -1.5
H     0.5    2.1    0.4
H     1.4    3.2   -0.7
H     2.8    1.6    1.1
