          13
 frame:         4587
C     1.8   -0.1    0.2
N     1.0   -1.4    0.5
C    -0.1   -0.9   -0.4
C    -1.2   -0.3    0.2
N    -1.2    1.0    0.3
O    -0.1    1.5   -0.4
C     0.7    0.3   -0.8
H     2.8   -0.4   -0.2
H     1.9    0.5    1.1
H     1.4   -2.2    0.2
H    -0.3   -1.7   -1.2
H    -2.1   -0.8    0.7
H     1.1    0.5   -1.8
