          12
 frame:          644
N     0.9    0.1    0.4
N     2.2   -0.0    0.3
C     2.9    1.0   -0.1
C     4.4    1.0   -0.1
C     4.9    1.4   -1.4
C     5.4    1.7   -2.5
H     0.5   -0.9    0.3
H     0.4    0.8   -0.2
H     2.4    1.9   -0.4
H     4.7   -0.1    0.1
H     4.8    1.6    0.7
H     5.8    2.0   -3.5
