          15
 frame:         3856
C     1.0    0.1    0.1
C     2.5    0.1    0.1
C     3.1    1.4   -0.4
O     2.5    2.3   -1.0
C     4.6    1.7   -0.1
C     5.1    1.7    1.2
O     5.4    0.6    0.4
H     0.6   -0.9    0.4
H     0.6    0.2   -1.0
H     0.5    0.9    0.7
H     3.0   -0.7   -0.4
H     2.9   -0.0    1.2
H     5.0    2.3   -0.9
H     4.5    1.5    2.1
H     6.0    2.3    1.4
