          15
 frame:         3494
C     0.8    0.5    0.0
C     2.1    0.2    0.1
C     3.3    1.1   -0.0
C     4.0    1.4    1.4
O     3.6    2.7    1.8
C     3.1    3.3    0.6
C     3.0    2.5   -0.4
H     0.0   -0.2    0.1
H     0.5    1.6   -0.1
H     2.4   -0.9    0.2
H     4.0    0.7   -0.7
H     5.1    1.3    1.2
H     3.7    0.7    2.1
H     2.9    4.4    0.7
H     2.5    2.8   -1.4
