          13
 frame:         4368
O     1.4    0.2    0.8
C     2.5    0.0    0.2
C     3.0   -1.3   -0.2
O     4.4   -1.1   -0.6
C     4.7    0.3   -0.6
C     3.9    1.1   -1.6
C     3.5    1.1   -0.1
H     2.4   -1.7   -1.1
H     3.0   -2.0    0.6
H     5.7    0.5   -0.4
H     4.3    2.0   -2.0
H     3.2    0.5   -2.3
H     3.6    2.0    0.5
