          13
 frame:         5168
C     0.9   -0.2    0.2
C     2.4    0.0   -0.1
C     2.9   -0.7   -1.3
N     3.2   -1.2   -2.3
C     2.7    1.6   -0.2
N     3.4    2.0   -1.3
O     2.4    2.3    0.7
H     0.7    0.4    1.1
H     0.8   -1.3    0.4
H     0.3    0.1   -0.7
H     3.0   -0.3    0.7
H     3.7    1.4   -2.1
H     3.6    3.0   -1.4
