          15
 frame:         1106
N     2.9   -0.7    1.0
C     2.3    0.2    0.0
C     2.8    1.6    0.2
C     2.0    2.6    0.5
C     4.3    1.8    0.1
O     4.8    3.1    0.1
H     2.6   -1.7    0.8
H     2.5   -0.5    1.9
H     1.2    0.2   -0.0
H     2.6   -0.2   -1.0
H     0.9    2.5    0.5
H     2.4    3.6    0.6
H     4.6    1.2   -0.8
H     4.8    1.2    0.9
H     4.4    3.6   -0.6
