          16
 frame:         4579
C     1.7   -0.1   -0.1
C     0.7   -1.2    0.5
O    -0.4   -1.5   -0.3
C    -1.4   -0.6   -0.2
C    -1.4    0.7    0.2
C    -0.1    1.6    0.4
N     1.0    1.1   -0.5
H     2.2   -0.5   -0.9
H     2.4    0.1    0.7
H     1.3   -2.1    0.6
H     0.4   -0.9    1.5
H    -2.4   -1.0   -0.4
H    -2.3    1.3    0.3
H     0.2    1.6    1.5
H    -0.3    2.6    0.1
H     1.6    1.8   -0.7
