          19
 frame:         2417
C     2.2   -0.2    0.5
C     2.8   -0.5   -0.9
C     2.0   -1.6   -1.7
N     2.0   -2.9   -1.0
N     2.9    0.7   -1.7
C     4.0    1.6   -1.4
C     4.0    0.8   -2.6
H     2.8    0.4    1.1
H     2.0   -1.2    1.0
H     1.2    0.3    0.3
H     3.8   -0.9   -0.7
H     2.4   -1.6   -2.7
H     1.0   -1.2   -1.8
H     2.9   -3.3   -1.1
H     1.4   -3.5   -1.5
H     4.7    1.2   -0.6
H     3.8    2.6   -1.4
H     3.8    1.3   -3.6
H     4.7   -0.1   -2.7
