          14
 frame:         6889
O     1.6    1.8    1.5
N     2.9    2.2    1.0
C     2.9    2.1   -0.3
O     3.9    2.4   -1.1
C     5.1    2.9   -0.4
C     6.1    3.6   -1.2
C     5.3    4.3   -0.1
H     1.8    1.9    2.5
H     2.0    1.8   -0.9
H     5.4    2.1    0.4
H     5.8    3.8   -2.2
H     7.1    3.4   -1.1
H     5.8    4.6    0.8
H     4.5    5.0   -0.5
