          17
 frame:          504
C     1.2   -0.2   -0.0
C     2.7   -0.2   -0.1
N     3.2    1.0    0.5
C     4.7    1.0    0.5
C     5.3    1.7   -0.7
C     5.4    2.3    0.6
H     0.7   -1.1   -0.5
H     0.7    0.7   -0.5
H     0.8   -0.2    1.0
H     3.0   -0.2   -1.2
H     3.1   -1.2    0.3
H     2.9    1.0    1.5
H     5.2    0.1    0.9
H     4.7    2.1   -1.5
H     6.3    1.2   -1.1
H     6.3    2.4    1.2
H     4.7    3.2    0.8
