          13
 frame:         5418
C     0.7    0.2   -0.0
C     2.2   -0.0   -0.2
N     3.0    0.8    0.2
N     4.3    0.4    0.0
C     5.2    1.3    0.4
C     6.7    1.0    0.2
O     7.5    1.7    0.6
H     0.3   -0.7    0.6
H     0.2    0.1   -1.0
H     0.5    1.1    0.5
H     2.6   -1.0   -0.7
H     4.9    2.2    0.9
H     6.8    0.0   -0.3
