          18
 frame:         5876
C     1.9   -0.5   -1.2
O     2.2    0.1    0.1
C     3.0    1.2   -0.0
C     2.5    2.5   -0.6
C     3.2    3.3    0.6
N     4.4    4.0    0.2
C     3.3    1.9    1.3
H     1.2   -1.4   -1.1
H     2.8   -0.8   -1.7
H     1.4    0.2   -1.9
H     4.0    0.9   -0.6
H     1.4    2.6   -0.5
H     2.8    2.9   -1.6
H     2.6    4.0    1.2
H     5.0    3.3   -0.3
H     4.9    4.3    1.1
H     4.3    1.6    1.8
H     2.5    1.7    2.0
