          15
 frame:         3795
C     1.0   -0.3   -0.1
C     2.4   -0.0   -0.2
C     3.1    1.1    0.0
C     2.5    2.4    0.5
O     2.9    3.5   -0.3
C     4.5    1.1   -0.2
O     5.3    2.1   -0.1
H     0.8   -1.1    0.7
H     0.5   -0.7   -1.0
H     0.4    0.6    0.2
H     3.0   -0.9   -0.6
H     2.9    2.6    1.6
H     1.4    2.4    0.6
H     3.9    3.5   -0.3
H     5.0    0.1   -0.6
