          15
 frame:         1273
C     1.0    0.0    0.1
C     2.5    0.0   -0.0
C     3.2    1.2   -0.1
C     4.6    1.3   -0.2
C     5.3    0.1   -0.2
C     4.6   -1.1   -0.2
C     3.2   -1.2   -0.1
H     0.6    1.0    0.2
H     0.6   -0.6    0.9
H     0.5   -0.4   -0.9
H     2.6    2.2   -0.1
H     5.1    2.2   -0.2
H     6.4    0.1   -0.3
H     5.2   -2.1   -0.2
H     2.7   -2.1   -0.0
