          14
 frame:         6003
C     1.2    0.5   -0.6
O     2.5    0.3   -0.2
C     3.3    1.5   -0.3
O     2.8    2.6   -0.6
C     4.7    1.2    0.0
C     5.6    2.3    0.0
N     6.9    2.2    0.4
H     0.7   -0.5   -0.5
H     1.0    0.9   -1.6
H     0.7    1.1    0.1
H     5.0    0.2    0.3
H     5.2    3.3   -0.2
H     7.3    1.3    0.5
H     7.5    3.0    0.1
