          16
 frame:          544
C     2.9   -1.1   -0.5
N     2.4    0.1    0.1
C     3.3    1.2    0.2
C     3.5    2.1   -1.0
C     2.8    2.6    0.3
N     3.5    3.7    1.0
H     2.1   -1.9   -0.5
H     3.8   -1.5    0.0
H     3.2   -0.9   -1.5
H     2.0   -0.1    1.1
H     4.3    1.0    0.8
H     2.8    1.9   -1.8
H     4.5    2.5   -1.2
H     1.7    2.7    0.2
H     4.5    3.6    0.9
H     3.3    3.5    2.0
