          15
 frame:         4515
O     0.9   -0.0    0.0
C     2.4   -0.1    0.1
C     2.9    1.3    0.1
C     4.5    1.3    0.0
O     4.9    2.7   -0.2
C     5.0    0.7    1.2
C     5.5    0.3    2.2
H     0.6   -0.9    0.1
H     2.7   -0.7   -0.8
H     2.7   -0.7    1.0
H     2.5    1.8    0.9
H     2.5    1.8   -0.8
H     4.8    0.8   -0.9
H     4.8    3.2    0.6
H     6.0   -0.1    3.1
