          15
 frame:         5306
C     0.5    0.3   -0.1
C     1.7   -0.6   -0.1
C     1.5   -2.0   -0.5
O     2.4   -3.0   -0.1
N     2.8   -0.0    0.4
N     3.9   -0.9    0.4
C     5.0   -0.3    0.6
H     0.8    1.4    0.1
H    -0.2   -0.0    0.6
H     0.0    0.2   -1.1
H     1.5   -1.9   -1.6
H     0.5   -2.3   -0.3
H     3.2   -2.5    0.1
H     6.0   -0.9    0.7
H     5.1    0.8    0.8
