          17
 frame:         3868
C     1.7   -1.0   -1.0
C     3.2   -1.0   -0.8
C     4.0   -2.0   -0.8
O     3.6    0.3   -0.5
C     5.0    0.6   -0.6
C     5.5    0.7   -2.0
C     5.6    0.8    0.6
H     1.4   -0.4   -1.9
H     1.2   -0.5   -0.2
H     1.3   -2.0   -1.2
H     3.5   -3.0   -1.0
H     5.0   -2.0   -0.6
H     5.0    1.5   -2.5
H     5.4   -0.3   -2.5
H     6.6    0.9   -1.9
H     5.1    0.8    1.5
H     6.7    1.1    0.6
