          14
 frame:         4620
C     1.0    0.0    0.6
C     2.4   -0.0    0.1
C     2.8    0.7   -1.1
O     4.2    1.1   -1.3
N     5.0   -0.1   -1.4
C     4.2   -1.1   -1.4
C     2.7   -0.8   -1.2
H     0.8    0.9    1.2
H     0.7   -0.9    1.1
H     0.3    0.1   -0.3
H     3.2   -0.1    0.9
H     2.1    1.4   -1.6
H     4.6   -2.1   -1.5
H     2.0   -1.4   -1.7
