          15
 frame:         3140
C     1.4   -0.2   -0.3
C     2.8    0.0    0.0
C     3.7   -1.1    0.5
C     4.0   -0.4   -0.8
O     5.0    0.6   -0.8
C     4.2    1.8   -0.4
O     3.2    1.3    0.5
H     1.0    0.6   -1.0
H     0.8   -0.1    0.6
H     1.2   -1.2   -0.7
H     3.3   -2.1    0.5
H     4.4   -0.8    1.4
H     3.9   -1.0   -1.8
H     4.8    2.5    0.1
H     3.7    2.2   -1.3
