          17
 frame:         3210
C     1.0    0.1    0.1
C     2.3    0.0   -0.1
C     3.1   -1.3   -0.1
C     4.2   -1.3   -1.2
C     5.0   -0.1   -1.2
C     4.1    1.2   -1.2
O     3.1    1.2   -0.2
H     0.5    1.1    0.1
H     0.4   -0.8    0.3
H     2.4   -2.1   -0.1
H     3.7   -1.4    0.9
H     4.8   -2.2   -1.1
H     3.6   -1.4   -2.2
H     5.6   -0.0   -0.3
H     5.7   -0.0   -2.0
H     4.6    2.1   -1.1
H     3.5    1.2   -2.2
