          16
 frame:          608
N     2.5   -1.2   -0.3
C     2.0    0.0    0.2
C     3.1    1.1    0.3
N     4.3    0.8    1.0
C     3.3    1.9   -1.0
C     2.7    2.5    0.3
H     1.7   -1.9   -0.5
H     3.1   -1.7    0.4
H     1.6   -0.1    1.3
H     1.2    0.4   -0.4
H     4.1    0.6    2.0
H     4.8   -0.0    0.6
H     2.7    1.7   -1.8
H     4.3    2.2   -1.2
H     3.3    3.2    0.8
H     1.6    2.8    0.2
