          18
 frame:         2358
C     1.5   -0.4   -1.1
C     2.3    0.1   -0.2
C     3.0    1.4   -0.2
N     4.4    1.3   -0.1
C     5.1    2.6   -0.1
C     6.6    2.5    0.1
C     7.5    3.0   -0.8
H     1.1   -1.4   -1.0
H     1.3    0.2   -2.0
H     2.6   -0.5    0.7
H     2.6    2.0    0.7
H     2.7    2.0   -1.1
H     4.8    0.8   -0.8
H     4.7    3.2    0.8
H     4.9    3.2   -1.0
H     6.9    1.9    0.9
H     7.2    3.5   -1.7
H     8.6    2.8   -0.6
