          20
 frame:         2434
C     2.3   -0.5   -1.4
C     2.4    0.1   -0.0
N     3.2    1.3    0.0
C     2.6    2.6   -0.5
C     3.3    3.4    0.6
C     3.4    2.0    1.4
C     4.6    1.6    2.1
H     1.7   -1.4   -1.4
H     3.3   -0.7   -1.8
H     1.8    0.2   -2.1
H     2.9   -0.6    0.7
H     1.4    0.3    0.4
H     1.5    2.6   -0.5
H     2.9    2.8   -1.6
H     4.2    3.8    0.3
H     2.7    4.1    1.1
H     2.5    1.9    2.0
H     5.5    1.8    1.5
H     4.6    0.6    2.5
H     4.7    2.3    3.0
