          17
 frame:         4473
O     2.9   -0.5   -0.9
C     2.8   -0.2    0.5
C     3.5    1.2    0.8
C     3.2    1.5    2.2
C     2.5    2.6    2.6
C     4.9    1.2    0.4
C     5.9    1.7    1.1
H     2.5   -1.3   -1.1
H     3.3   -1.0    1.0
H     1.8   -0.2    0.8
H     2.9    1.9    0.1
H     3.7    0.8    3.0
H     2.1    3.3    1.9
H     2.4    2.8    3.7
H     5.1    0.7   -0.6
H     5.8    2.2    2.0
H     6.9    1.7    0.7
