          15
 frame:         5066
C     1.0   -0.0   -0.3
C     2.5   -0.2    0.1
C     3.0   -1.4    0.3
C     3.3    1.0    0.2
N     4.6    1.1   -0.1
N     2.7    2.2    0.6
O     3.6    3.2    0.8
H     0.9    0.5   -1.2
H     0.5    0.6    0.5
H     0.5   -1.0   -0.3
H     2.4   -2.3    0.3
H     4.0   -1.6    0.6
H     5.0    0.2   -0.6
H     2.1    2.1    1.4
H     4.5    2.8    0.5
