          15
 frame:         7191
O     0.9   -0.1    0.6
S     2.2    0.0   -0.0
O     2.4    0.2   -1.5
C     3.2    1.3    0.8
C     4.5    0.6    1.2
C     4.2   -0.8    1.6
C     3.3   -1.4    0.5
H     2.6    1.6    1.7
H     3.3    2.1    0.2
H     5.2    0.6    0.3
H     5.1    1.1    2.0
H     5.1   -1.5    1.7
H     3.7   -0.8    2.5
H     3.9   -1.7   -0.4
H     2.6   -2.2    0.8
