          15
 frame:         3791
C     1.1   -0.5    2.3
C     1.3    0.1    1.1
C     2.3    1.2    0.9
C     3.3    0.9   -0.2
O     2.7    0.7   -1.5
C     2.5    1.8   -2.3
O     2.8    3.0   -2.0
H     0.4   -1.3    2.4
H     1.7   -0.3    3.2
H     0.7   -0.2    0.3
H     2.9    1.4    1.8
H     1.8    2.1    0.6
H     3.8   -0.0   -0.0
H     4.0    1.7   -0.3
H     2.0    1.5   -3.2
