          16
 frame:         5107
C     0.8   -0.1    1.1
C     1.6   -0.1    0.1
C     2.7    1.0   -0.1
C     4.1    0.4   -0.3
O     4.1   -0.3   -1.6
N     5.4   -0.9   -1.8
C     5.4   -1.6   -2.9
H     0.1   -0.9    1.3
H     0.9    0.6    2.0
H     1.5   -0.8   -0.7
H     2.7    1.6    0.7
H     2.5    1.6   -1.0
H     4.4   -0.3    0.5
H     4.8    1.2   -0.4
H     6.4   -2.1   -3.1
H     4.6   -1.6   -3.6
