          19
 frame:         3446
C     2.9   -1.0   -0.4
C     2.4    0.2    0.3
C     3.4    1.4    0.2
C     3.5    2.3   -1.0
C     3.1    2.8    0.3
C     1.7    3.3    0.6
O     4.0    3.7    1.1
H     2.1   -1.8   -0.3
H     3.8   -1.4    0.1
H     3.1   -0.9   -1.5
H     2.1    0.0    1.3
H     1.4    0.6   -0.2
H     4.4    1.1    0.7
H     2.7    2.2   -1.8
H     4.5    2.5   -1.4
H     0.9    2.7    0.0
H     1.6    4.4    0.2
H     1.4    3.3    1.6
H     4.9    3.3    1.0
