          15
 frame:         1370
C     1.5   -0.6    1.0
C     2.4   -0.2    0.1
C     3.1    1.2    0.2
C     4.6    1.0    0.1
C     5.8    0.9   -0.0
C     7.2    0.7   -0.1
C     8.1    1.7   -0.1
H     1.0   -1.6    0.9
H     1.3   -0.0    1.9
H     2.6   -0.8   -0.8
H     2.9    1.7    1.1
H     2.8    1.8   -0.7
H     7.5   -0.4   -0.2
H     7.8    2.7   -0.0
H     9.2    1.4   -0.2
