          19
 frame:         3238
C     0.9   -0.0    0.0
C     2.5    0.0   -0.0
C     3.0    0.1   -1.5
C     3.1    1.1    0.8
C     4.5    0.6    1.2
O     4.5   -0.8    1.0
C     3.1   -1.2    0.7
H     0.6   -0.1    1.1
H     0.6   -0.9   -0.5
H     0.5    0.9   -0.4
H     4.1    0.1   -1.6
H     2.6    1.1   -1.9
H     2.6   -0.7   -2.1
H     2.5    1.3    1.7
H     3.1    2.1    0.3
H     5.3    1.0    0.6
H     4.7    0.8    2.2
H     3.2   -2.1    0.0
H     2.5   -1.5    1.6
