          14
 frame:         4577
C     2.1   -0.1   -0.0
C     0.8   -0.9    0.2
C    -0.4   -1.5   -0.5
C    -1.5   -0.4   -0.1
N    -1.4    0.7    0.4
O    -0.1    1.4    0.5
C     0.8    0.6   -0.2
H     2.7   -0.2   -0.9
H     2.7   -0.0    0.9
H     0.6   -0.9    1.3
H    -0.7   -2.5   -0.2
H    -0.3   -1.5   -1.6
H    -2.5   -0.8   -0.2
H     0.6    0.7   -1.3
