          15
 frame:         5184
C     0.8    0.2   -0.1
C     2.2    0.0   -0.3
C     3.2    0.9    0.1
N     4.5    0.7   -0.0
N     5.0   -0.4   -0.7
C     5.5    1.7    0.3
O     6.7    1.6    0.1
H     0.3   -0.7    0.5
H     0.2    0.3   -1.0
H     0.6    1.1    0.5
H     2.6   -0.9   -0.9
H     2.9    1.8    0.7
H     5.0   -1.2   -0.1
H     6.0   -0.1   -0.9
H     5.0    2.6    0.8
