          15
 frame:         3912
C     0.5   -0.2    0.1
C     1.9   -0.5    0.3
C     2.5   -1.7    0.6
O     2.8    0.6    0.4
C     3.0    1.3   -0.8
C     3.9    2.5   -0.5
O     2.5    1.0   -1.9
H     0.1    0.5    0.8
H    -0.1   -1.1    0.2
H     0.3    0.2   -0.9
H     1.8   -2.6    0.6
H     3.5   -1.8    0.7
H     4.8    2.2   -0.1
H     3.4    3.1    0.2
H     4.0    3.1   -1.4
