          14
 frame:         5632
C     1.1    0.0    0.1
N     2.5   -0.1   -0.5
O     3.2    1.1   -0.4
C     4.5    0.8   -1.0
C     4.7   -0.7   -0.5
C     3.3   -1.2   -0.3
O     2.9   -2.3   -0.2
H     0.8   -1.0    0.1
H     0.5    0.6   -0.5
H     1.2    0.4    1.1
H     4.4    0.9   -2.1
H     5.2    1.5   -0.6
H     5.3   -1.3   -1.2
H     5.2   -0.7    0.5
