          15
 frame:         3216
C     1.0    0.1   -0.0
C     2.5   -0.1   -0.1
C     3.3   -1.2    0.1
C     4.7   -0.8   -0.1
C     5.8   -1.5    0.0
C     4.6    0.7   -0.2
O     3.2    1.1   -0.2
H     0.5   -0.9    0.1
H     0.7    0.6   -1.0
H     0.7    0.8    0.8
H     2.9   -2.2    0.2
H     6.8   -1.1   -0.1
H     5.7   -2.6    0.1
H     5.0    1.1   -1.2
H     5.1    1.3    0.6
