          18
 frame:         1824
C     0.9    0.0    0.0
C     2.5   -0.0    0.0
C     3.2    1.1    0.8
N     4.5    0.6    1.2
C     4.3   -0.8    1.5
C     3.1   -1.2    0.6
C     2.7   -2.5    0.5
H     0.5   -0.8   -0.6
H     0.6    1.0   -0.4
H     0.6   -0.1    1.1
H     2.8    0.1   -1.0
H     2.6    1.3    1.8
H     3.2    2.1    0.3
H     5.1    0.7    0.3
H     5.2   -1.4    1.2
H     4.1   -0.9    2.5
H     1.8   -2.8   -0.1
H     3.2   -3.4    1.0
