          17
 frame:          349
C     1.0   -0.1    0.0
C     2.5   -0.0   -0.1
C     3.3   -0.6   -1.2
C     3.2    0.9   -1.0
C     4.5    1.6   -0.6
N     5.3    2.0   -1.8
H     0.6    0.7    0.7
H     0.7   -1.0    0.4
H     0.6    0.1   -1.0
H     3.0   -0.2    0.9
H     2.7   -1.0   -2.1
H     4.2   -1.1   -1.1
H     2.6    1.5   -1.7
H     5.0    1.0    0.1
H     4.2    2.5   -0.1
H     5.6    1.1   -2.3
H     6.2    2.5   -1.5
