          15
 frame:         3979
C     3.0   -1.2    0.5
C     2.3    0.2    0.4
O     1.1    0.3    0.7
C     3.2    1.4    0.1
C     2.6    2.6   -0.0
C     4.6    1.2   -0.0
C     5.6    2.1    0.5
H     3.8   -1.1    1.2
H     3.4   -1.4   -0.5
H     2.2   -1.9    0.8
H     1.5    2.7    0.1
H     3.1    3.5   -0.3
H     5.0    0.3   -0.6
H     5.3    3.0    1.0
H     6.6    1.9    0.3
