          14
 frame:         6058
N     1.0   -0.3   -0.2
C     2.3    0.0    0.1
C     3.5   -0.7   -0.6
O     4.3    0.5   -0.3
C     3.1    1.2   -0.7
C     2.9    0.7   -2.2
C     3.2   -0.6   -2.1
H     0.3    0.4    0.2
H     0.7   -1.2    0.2
H     2.6    0.2    1.2
H     3.9   -1.7   -0.2
H     3.1    2.2   -0.5
H     2.6    1.3   -3.0
H     3.2   -1.4   -2.8
