          21
 frame:         1198
C     0.9    0.0   -0.0
C     2.5    0.0    0.1
C     3.1    1.1    0.9
C     4.5    0.7    1.2
C     4.4   -0.9    1.4
C     5.6   -1.6    1.0
C     3.1   -1.3    0.7
H     0.6   -0.8   -0.7
H     0.6    1.0   -0.5
H     0.5   -0.1    1.0
H     2.9    0.1   -1.0
H     2.5    1.2    1.9
H     3.0    2.1    0.5
H     5.1    0.9    0.3
H     5.0    1.2    2.0
H     4.2   -1.0    2.5
H     5.8   -1.5   -0.1
H     5.5   -2.7    1.1
H     6.5   -1.3    1.5
H     3.3   -2.0   -0.1
H     2.4   -1.7    1.4
