          15
 frame:         5856
C     1.1    0.7   -0.7
N     2.4    0.4   -0.4
O     3.1    1.6   -0.3
C     4.5    1.2    0.1
C     5.3    2.5    0.1
C     5.4    3.4    1.3
N     6.5    2.5    0.9
H     0.5   -0.2   -0.8
H     0.7    1.7   -0.8
H     4.8    0.5   -0.6
H     4.5    0.8    1.1
H     5.4    3.0   -0.9
H     4.8    3.1    2.2
H     5.5    4.4    1.1
H     7.2    3.0    0.5
