          16
 frame:         2271
C     0.9    0.0    0.0
C     2.4    0.0    0.0
C     3.6    0.0    0.0
C     5.1    0.0   -0.0
N     5.7   -0.8   -1.1
C     5.6    1.4   -0.1
C     6.3    2.0    0.8
H     0.5    1.0    0.0
H     0.6   -0.5    0.9
H     0.5   -0.5   -0.9
H     5.5   -0.4    0.9
H     5.3   -0.4   -2.0
H     5.3   -1.8   -1.1
H     5.3    2.0   -1.0
H     6.6    1.5    1.8
H     6.7    3.0    0.7
