          17
 frame:         5717
C     1.9   -0.7    0.4
N     3.2   -0.2    0.3
C     3.3    1.2   -0.1
C     4.7    1.7   -0.2
C     4.8    3.2   -0.4
N     5.3    3.6   -1.5
O     5.3    5.1   -1.5
H     1.9   -1.8    0.5
H     1.2   -0.5   -0.5
H     1.3   -0.3    1.2
H     3.7   -0.7   -0.4
H     2.8    1.8    0.8
H     2.7    1.5   -1.0
H     5.2    1.2   -1.0
H     5.3    1.4    0.7
H     4.4    3.9    0.4
H     5.7    5.3   -2.3
