          17
 frame:         1057
C     1.5   -0.4    0.6
N     2.9   -0.3    0.3
C     3.4    1.1    0.0
C     4.9    1.1   -0.1
C     5.7    0.8    1.1
O     5.5   -0.6    1.5
H     1.2   -1.5    0.8
H     0.9   -0.0   -0.2
H     1.3    0.1    1.6
H     3.2   -0.9   -0.4
H     3.1    1.7    0.9
H     2.8    1.4   -0.9
H     5.1    2.2   -0.5
H     5.2    0.5   -1.0
H     5.4    1.5    1.9
H     6.7    0.9    0.9
H     4.5   -0.7    1.4
