          14
 frame:          869
C     3.2   -0.9   -1.1
O     2.5    0.0   -0.2
C     3.2    1.2    0.1
C     4.3    1.6   -0.4
C     4.9    3.0    0.0
O     6.2    2.8    0.8
H     2.5   -1.7   -1.2
H     4.2   -1.2   -0.7
H     3.3   -0.4   -2.1
H     2.6    1.8    0.8
H     5.0    1.0   -1.1
H     4.2    3.5    0.6
H     5.2    3.6   -0.8
H     6.0    2.1    1.4
