          15
 frame:         1978
C     1.0   -0.0    0.2
C     2.4    0.1   -0.2
C     3.2    1.2   -0.2
C     4.6    1.4   -0.5
N     4.9    2.9   -0.4
C     3.8    3.4    0.0
N     2.8    2.5    0.2
H     0.8   -0.9    0.8
H     0.3   -0.1   -0.7
H     0.7    0.8    0.8
H     2.9   -0.8   -0.6
H     4.9    1.1   -1.6
H     5.3    0.8    0.1
H     3.7    4.4    0.2
H     1.8    2.8    0.3
