          17
 frame:         4529
O     0.4    0.5   -1.3
C     1.2    1.0   -0.3
C     2.3    1.9   -0.9
O     3.1    2.4    0.1
C     4.2    3.2   -0.5
C     5.1    3.6    0.6
C     5.5    4.9    0.9
H    -0.3   -0.1   -0.9
H     1.7    0.2    0.3
H     0.7    1.6    0.5
H     1.8    2.7   -1.5
H     2.8    1.3   -1.7
H     3.7    4.1   -1.0
H     4.7    2.6   -1.2
H     5.5    2.8    1.2
H     5.1    5.7    0.3
H     6.2    5.1    1.7
