          20
 frame:         1934
C     2.0   -1.1   -0.6
C     1.7    0.3   -0.1
C     3.0    1.1    0.3
C     3.6    0.5    1.6
C     3.9    1.6   -0.8
C     3.0    2.6    0.1
N     3.7    3.6    0.9
H     1.1   -1.6   -1.0
H     2.4   -1.7    0.2
H     2.7   -1.1   -1.4
H     1.0    0.3    0.7
H     1.3    0.9   -0.9
H     4.5    1.1    1.9
H     4.0   -0.5    1.4
H     2.9    0.5    2.4
H     3.6    1.5   -1.8
H     5.0    1.7   -0.6
H     2.1    3.0   -0.4
H     4.6    3.3    1.1
H     3.2    3.7    1.8
