          14
 frame:         5954
C     3.2   -0.6    1.1
O     2.8    0.2   -0.0
C     3.3    1.5   -0.1
C     4.2    2.1    0.7
C     4.6    3.5    0.3
N     5.5    4.0    1.2
O     4.2    4.1   -0.7
H     2.7   -1.5    1.0
H     2.9   -0.1    2.0
H     4.3   -0.7    1.1
H     2.9    2.0   -1.0
H     4.6    1.6    1.6
H     5.7    3.6    2.1
H     5.7    5.0    1.1
