          12
 frame:         3013
N     1.7    1.2   -1.9
C     2.6    1.0   -1.2
C     3.6    0.8   -0.2
N     4.9    1.0   -0.6
N     5.8    0.7    0.5
C     7.0    0.2   -0.1
C     7.0    1.6    0.3
H     3.4    0.5    0.8
H     7.0   -0.0   -1.2
H     7.5   -0.6    0.5
H     7.4    1.9    1.3
H     6.9    2.3   -0.4
