          15
 frame:         6434
N     1.1    1.4   -1.3
N     2.4    1.3   -1.3
C     3.0    0.9   -0.2
C     4.5    0.9   -0.0
C     5.4    1.2   -1.2
C     5.3    2.2   -0.1
O     6.3    2.3    0.9
H     0.7    1.2   -2.2
H     0.6    0.9   -0.6
H     2.4    0.7    0.7
H     4.8    0.2    0.7
H     4.9    1.4   -2.1
H     6.3    0.6   -1.2
H     4.7    3.1   -0.3
H     7.0    2.8    0.5
