          15
 frame:         2221
C     1.0    0.1    0.3
C     2.5   -0.0    0.1
C     3.1   -1.4   -0.1
C     3.6   -1.6   -1.5
C     4.0   -1.7   -2.6
N     3.1    1.1    0.1
N     4.5    1.0   -0.1
H     0.7    1.1    0.5
H     0.7   -0.6    1.2
H     0.4   -0.4   -0.6
H     2.4   -2.2    0.1
H     4.0   -1.5    0.6
H     4.4   -1.9   -3.6
H     4.8    0.3   -0.8
H     4.8    1.9   -0.3
