          17
 frame:         3971
C     4.0   -0.6   -1.5
C     3.1   -0.4   -0.3
O     3.2   -1.4    0.8
C     3.2    1.1    0.3
C     4.7    1.4    0.7
C     5.0    1.9    2.0
O     5.3    0.5    1.7
H     3.8    0.1   -2.3
H     3.8   -1.6   -1.9
H     5.0   -0.6   -1.2
H     2.0   -0.5   -0.6
H     4.0   -1.1    1.3
H     2.6    1.1    1.2
H     2.9    1.8   -0.4
H     5.3    1.6   -0.1
H     4.2    2.0    2.8
H     5.9    2.5    2.2
