          13
 frame:         4371
O     0.9   -0.0    0.1
C     2.1   -0.1   -0.0
C     2.9    1.2    0.0
O     4.2    1.1   -0.6
C     5.0    0.1   -0.1
C     4.2   -1.2   -0.0
C     2.9   -1.3   -0.1
H     2.3    2.0   -0.5
H     3.0    1.5    1.1
H     5.4    0.3    0.9
H     5.8    0.0   -0.8
H     4.8   -2.1    0.1
H     2.4   -2.2   -0.1
