          16
 frame:         6549
O     0.8   -0.0    0.2
C     2.2    0.1    0.1
C     2.9    1.1    1.0
N     4.0    0.1    1.3
C     3.2   -1.0    0.8
C     3.8   -2.1   -0.0
C     5.1   -2.2   -0.3
H     0.5   -0.5   -0.6
H     2.5    0.2   -1.0
H     2.3    1.3    1.9
H     3.2    2.0    0.5
H     4.8    0.3    0.6
H     2.6   -1.4    1.6
H     3.0   -2.8   -0.4
H     5.8   -1.6    0.1
H     5.4   -3.1   -0.9
