          18
 frame:         1664
C     1.0    0.1    0.0
C     2.5    0.0    0.1
C     3.1   -1.1    1.0
C     4.0   -0.3    1.9
C     4.5    0.8    0.9
N     3.1    1.2    0.8
C     3.0    0.8    2.2
H     0.6   -0.8   -0.5
H     0.7    1.0   -0.5
H     0.5    0.1    1.0
H     2.9    0.0   -0.9
H     3.7   -1.9    0.4
H     2.3   -1.7    1.5
H     4.6   -0.8    2.7
H     5.0    0.4    0.0
H     5.2    1.5    1.4
H     3.4    1.6    2.9
H     1.9    0.6    2.6
