          12
 frame:         6412
N     2.3   -1.4    0.8
C     3.6   -1.1    0.5
O     4.5   -1.9    0.4
C     3.9    0.4    0.4
O     2.9    1.2    0.5
C     5.3    0.8    0.2
C     5.6    2.1    0.1
H     1.6   -0.6    0.8
H     2.0   -2.4    0.8
H     6.0    0.0    0.1
H     4.8    2.9    0.1
H     6.6    2.4   -0.1
