          13
 frame:         4377
O     1.2    0.2    0.5
C     2.3   -0.0   -0.1
O     2.5   -1.1   -0.8
C     3.9   -1.2   -1.2
C     4.5    0.1   -0.9
C     3.9    1.3   -1.5
C     3.5    0.9   -0.1
H     4.4   -2.0   -0.6
H     4.0   -1.5   -2.3
H     5.6    0.1   -0.6
H     4.5    2.2   -1.6
H     3.2    1.2   -2.3
H     3.7    1.5    0.8
