          16
 frame:         6210
N     2.2   -0.4   -1.5
C     2.4    0.1   -0.1
C     3.4    1.3   -0.1
C     3.6    1.8    1.4
O     3.4    3.2    1.4
C     2.9    3.5    0.1
C     2.9    2.5   -0.7
H     1.5   -1.1   -1.6
H     3.1   -0.8   -1.8
H     2.8   -0.7    0.6
H     1.4    0.4    0.2
H     4.3    0.9   -0.5
H     4.6    1.5    1.8
H     2.9    1.3    2.1
H     2.7    4.6    0.0
H     2.5    2.6   -1.8
