          13
 frame:         6011
C     3.0   -1.0    0.7
O     2.6   -0.0   -0.3
N     3.2    1.2   -0.1
C     2.6    2.4    0.1
C     3.6    3.3    0.1
C     4.8    2.6   -0.2
N     4.5    1.3   -0.3
H     2.5   -1.9    0.5
H     2.7   -0.6    1.7
H     4.1   -1.1    0.7
H     1.5    2.4    0.3
H     3.4    4.4    0.3
H     5.8    3.0   -0.3
