          16
 frame:          390
C     1.0   -0.1   -0.1
C     2.5   -0.1    0.0
N     3.0   -0.1    1.4
C     3.4   -0.7   -1.1
C     3.3    0.8   -0.9
N     4.5    1.5   -0.6
H     0.7    0.0   -1.2
H     0.5    0.7    0.5
H     0.6   -1.1    0.2
H     2.9   -1.1    1.8
H     2.6    0.5    2.0
H     2.9   -1.2   -1.9
H     4.3   -1.2   -0.7
H     2.7    1.3   -1.7
H     4.9    1.1    0.3
H     4.2    2.5   -0.3
