          15
 frame:         4429
O     2.4   -0.3   -1.5
C     2.3    0.2   -0.1
C     3.3    1.3   -0.0
O     3.4    1.7    1.4
C     3.1    3.1    1.5
C     2.8    3.6    0.1
C     2.9    2.6   -0.7
H     1.8   -1.1   -1.6
H     2.6   -0.6    0.6
H     1.3    0.5    0.1
H     4.3    1.0   -0.4
H     4.0    3.6    1.9
H     2.3    3.3    2.2
H     2.5    4.6   -0.1
H     2.7    2.6   -1.8
