          17
 frame:         2879
N     1.2    0.2    0.5
C     2.5   -0.1   -0.1
C     2.5   -1.5   -0.8
N     3.3   -1.5   -2.0
C     3.4   -0.1   -2.4
C     2.1    0.7   -2.5
C     2.9    0.8   -1.3
H     1.3    1.2    0.9
H     1.1   -0.4    1.3
H     3.4   -0.1    0.6
H     1.4   -1.7   -1.1
H     2.8   -2.3   -0.1
H     4.3   -1.7   -1.7
H     4.2    0.2   -3.0
H     2.1    1.5   -3.2
H     1.1    0.1   -2.5
H     3.4    1.8   -1.0
