          12
 frame:         5489
C     1.0   -0.0   -0.0
C     2.5    0.0   -0.0
O     3.1   -0.7   -1.1
C     3.0    1.4    0.0
C     3.4    2.5    0.0
C     3.9    3.8   -0.0
N     4.2    4.9   -0.0
H     0.6    0.4    0.9
H     0.7   -1.1   -0.0
H     0.6    0.5   -0.9
H     2.9   -0.5    0.8
H     2.8   -0.2   -2.0
