          15
 frame:         2765
C     1.0    0.0    0.0
N     2.5   -0.1    0.1
C     3.0   -1.4    0.1
N     3.1    1.0   -0.3
C     4.4    0.9   -0.6
C     5.2    2.0   -0.9
C     5.9    2.9   -1.3
H     0.8    1.1    0.1
H     0.5   -0.6    0.8
H     0.7   -0.3   -1.0
H     2.3   -2.1    0.5
H     3.9   -1.5    0.7
H     3.3   -1.8   -0.9
H     5.0   -0.1   -0.5
H     6.5    3.8   -1.6
