          16
 frame:         1604
C     0.4    1.4    0.8
N     1.3    0.3    0.2
C     0.4   -0.4   -0.8
C    -0.5    0.7   -1.3
C    -1.0    1.1    0.1
C    -1.4   -0.3    0.6
C    -0.6   -1.2    0.0
H     0.8    2.4    0.6
H     0.3    1.2    1.9
H     2.0    0.8   -0.3
H     1.0   -1.0   -1.5
H     0.1    1.5   -1.8
H    -1.3    0.4   -2.0
H    -1.7    1.9    0.2
H    -2.2   -0.4    1.3
H    -0.5   -2.2    0.3
