          14
 frame:         6941
C     0.9   -0.0    0.0
C     2.5    0.1    0.0
C     3.2    1.2   -0.0
S     4.9    0.9   -0.0
C     4.6   -0.8    0.0
C     3.3   -1.1    0.1
N     2.7   -2.4    0.2
H     0.5    1.0    0.0
H     0.6   -0.5    0.9
H     0.6   -0.6   -0.8
H     2.9    2.2   -0.1
H     5.5   -1.5    0.1
H     1.9   -2.5   -0.3
H     3.4   -3.2   -0.1
