          15
 frame:         4862
C     1.0   -0.1   -0.0
C     2.5   -0.0    0.0
N     3.2   -1.1   -0.8
N     3.4   -0.7   -2.0
C     3.4    0.6   -2.1
C     3.1    1.2   -0.8
O     4.3    1.8   -0.2
H     0.6    0.8    0.6
H     0.7   -1.0    0.5
H     0.6   -0.0   -1.0
H     2.9   -0.0    1.0
H     2.7   -2.0   -0.8
H     3.6    1.1   -3.0
H     2.4    2.0   -0.8
H     5.0    1.2   -0.3
