          16
 frame:         2074
C     0.9   -0.1   -0.0
C     2.3   -0.0   -0.0
C     3.5    0.0   -0.0
C     5.0    0.1    0.0
C     5.5    1.5    0.1
C     5.8    2.2    1.4
N     6.9    1.7    0.6
H     0.4    0.9   -0.0
H     0.5   -0.7    0.8
H     0.5   -0.6   -0.9
H     5.4   -0.3   -0.9
H     5.4   -0.5    0.8
H     5.2    2.2   -0.7
H     5.5    1.6    2.3
H     5.6    3.3    1.5
H     7.4    2.5    0.1
