          17
 frame:         4151
C     5.0   -0.7    1.3
O     3.6   -0.4    0.9
C     3.4    0.8    0.5
C     4.2    1.9    0.3
C     3.8    3.2   -0.2
C     4.0    4.3    0.8
C     4.8    5.4    0.6
H     5.0   -1.7    1.6
H     5.3   -0.0    2.1
H     5.7   -0.6    0.4
H     2.3    0.9    0.2
H     5.3    1.8    0.6
H     2.7    3.2   -0.4
H     4.3    3.5   -1.1
H     3.5    4.2    1.8
H     5.3    5.5   -0.4
H     5.0    6.1    1.4
