          16
 frame:         5534
C     1.0   -1.3    1.4
C     1.8   -0.9    0.2
O     1.1   -1.4   -0.9
C     1.9    0.6    0.1
N     3.1    1.1   -0.7
C     3.2    0.9   -2.0
O     2.5    0.1   -2.7
H     1.5   -1.0    2.4
H     0.8   -2.4    1.4
H    -0.0   -0.8    1.4
H     2.8   -1.3    0.3
H     1.6   -1.0   -1.7
H     2.1    1.0    1.1
H     1.0    1.1   -0.3
H     3.8    1.7   -0.2
H     4.1    1.4   -2.4
