          19
 frame:         2001
C     2.8   -1.0   -0.8
C     2.2    0.1    0.1
C     3.3    1.2    0.4
N     3.6    2.2   -0.7
C     2.9    2.6    0.6
C     3.6    3.6    1.5
N     3.5    5.0    0.9
H     2.0   -1.8   -0.9
H     3.6   -1.5   -0.3
H     3.1   -0.6   -1.7
H     1.9   -0.2    1.1
H     1.3    0.6   -0.3
H     4.2    0.9    0.9
H     2.9    2.1   -1.4
H     1.8    2.9    0.5
H     4.7    3.2    1.6
H     3.2    3.6    2.5
H     4.0    5.0    0.0
H     4.1    5.6    1.5
