          12
 frame:         6768
O     2.7   -0.1    1.1
C     3.0    1.0    1.7
C     4.3    1.8    1.4
O     4.4    2.9    1.9
N     5.3    1.1    0.8
C     6.2    1.6   -0.2
C     5.3    0.5   -0.5
H     2.3    1.5    2.4
H     7.2    1.4   -0.0
H     6.0    2.6   -0.6
H     4.4    0.7   -1.1
H     5.7   -0.5   -0.6
