          19
 frame:         1333
C     2.5   -0.5   -1.7
C     2.5    0.0   -0.2
C     3.3    1.3    0.0
C     3.4    1.7    1.5
C     3.4    3.2    1.5
C     2.8    3.6    0.2
C     2.8    2.5   -0.6
H     1.9   -1.4   -1.8
H     3.5   -0.7   -2.0
H     2.0    0.3   -2.3
H     2.9   -0.8    0.5
H     1.4    0.2    0.1
H     4.3    1.1   -0.4
H     4.3    1.2    2.0
H     2.5    1.4    2.0
H     4.5    3.6    1.6
H     2.9    3.7    2.4
H     2.5    4.6   -0.1
H     2.4    2.6   -1.7
