          20
 frame:         1744
C     1.0   -0.0   -0.0
C     2.5    0.0   -0.0
C     3.1    1.2    0.8
C     4.4    0.6    1.4
N     4.6   -0.8    1.0
C     3.2   -1.2    0.6
C     3.3   -2.5   -0.3
H     0.7   -0.9   -0.6
H     0.6    0.9   -0.5
H     0.6   -0.1    1.0
H     2.9    0.1   -1.1
H     2.4    1.5    1.6
H     3.3    2.1    0.2
H     5.3    1.2    1.2
H     4.3    0.6    2.5
H     5.2   -0.8    0.1
H     2.7   -1.5    1.5
H     3.8   -2.2   -1.2
H     2.3   -2.8   -0.5
H     3.8   -3.3    0.2
