          18
 frame:         2684
C     1.1   -0.2   -0.2
N     2.4    0.0    0.2
C     3.0    1.4    0.1
C     2.4    2.3    1.2
C     4.4    1.4    0.0
C     5.6    1.4   -0.0
C     7.1    1.4   -0.0
H     0.8   -1.2   -0.2
H     0.9    0.2   -1.2
H     0.4    0.4    0.5
H     3.0   -0.6   -0.3
H     2.6    1.8   -0.9
H     2.8    1.9    2.1
H     1.3    2.3    1.2
H     2.8    3.3    1.0
H     7.5    2.4   -0.0
H     7.5    0.9   -0.9
H     7.5    0.8    0.8
