          15
 frame:         4344
O     1.2    0.1    0.6
C     2.3    0.0    0.2
C     3.0   -1.3   -0.1
C     4.0   -1.3   -1.2
C     4.8   -0.0   -1.1
O     4.0    1.1   -1.2
C     3.1    1.2   -0.1
H     2.2   -2.1   -0.2
H     3.5   -1.5    0.9
H     4.7   -2.2   -1.1
H     3.5   -1.3   -2.2
H     5.5    0.0   -0.2
H     5.5    0.1   -2.0
H     3.7    1.5    0.8
H     2.5    2.1   -0.3
