          18
 frame:         1654
C     1.1    0.3   -0.3
C     2.5    0.0   -0.1
C     3.2   -1.1   -0.8
C     3.6    0.3   -1.1
N     4.9    0.8   -0.7
C     5.8    1.0   -1.8
C     5.2    2.2   -1.1
H     0.8    1.4   -0.1
H     0.4   -0.3    0.3
H     0.8    0.2   -1.4
H     2.9    0.2    0.9
H     2.6   -1.7   -1.5
H     4.0   -1.7   -0.3
H     3.2    0.7   -2.1
H     5.5    0.8   -2.8
H     6.9    0.8   -1.6
H     5.8    2.7   -0.3
H     4.4    2.7   -1.6
