          12
 frame:         6995
C     2.8   -1.2    0.4
C     2.3    0.0    0.1
C     3.0    1.3    0.0
N     2.3    2.4   -0.2
S     3.4    3.7   -0.3
C     4.8    2.8    0.0
C     4.5    1.4    0.2
H     2.1   -2.1    0.4
H     3.9   -1.4    0.5
H     1.2    0.1   -0.0
H     5.8    3.2    0.1
H     5.2    0.6    0.4
