          14
 frame:          252
C     0.9    0.0    0.1
C     2.4    0.0    0.0
C     3.0    1.2   -0.7
C     3.9    0.7   -1.7
C     3.8   -0.7   -1.7
C     3.0   -1.2   -0.7
H     0.5    0.9    0.6
H     0.5   -0.9    0.6
H     0.5    0.0   -0.9
H     2.8    0.0    1.1
H     2.8    2.2   -0.4
H     4.4    1.4   -2.4
H     4.4   -1.4   -2.4
H     2.8   -2.2   -0.4
