          18
 frame:         1570
C     0.8   -1.2    0.5
C    -0.4   -1.5   -0.3
C    -1.6   -0.5   -0.2
C    -1.4    0.8    0.2
C    -0.2    1.6    0.4
C     1.0    1.1   -0.5
N     1.7   -0.1    0.1
H     1.4   -2.1    0.6
H     0.5   -1.0    1.5
H    -0.8   -2.5   -0.1
H    -0.2   -1.6   -1.4
H    -2.6   -0.9   -0.3
H    -2.4    1.3    0.3
H     0.1    1.6    1.4
H    -0.4    2.6    0.1
H     1.8    1.9   -0.6
H     0.6    0.9   -1.5
H     2.3   -0.5   -0.6
