          12
 frame:         6723
O     1.0   -0.0   -0.0
C     2.4   -0.0    0.0
C     2.9    1.3   -0.0
C     3.4    2.5   -0.0
C     4.0    3.7   -0.0
N     3.3    4.8    0.0
O     4.1    5.9    0.0
H     0.7   -0.9   -0.0
H     2.8   -0.6   -0.9
H     2.8   -0.6    0.9
H     5.1    3.8   -0.0
H     3.5    6.7    0.0
