          13
 frame:         4537
O     2.0   -1.2    0.5
C     2.9   -0.5   -0.2
O     3.5   -1.0   -1.1
C     3.0    1.0    0.2
C     3.8    1.8   -0.4
C     4.0    3.2   -0.0
C     4.8    4.0   -0.6
H     1.5   -0.7    1.1
H     2.3    1.3    1.0
H     4.5    1.4   -1.2
H     3.3    3.6    0.8
H     5.5    3.7   -1.4
H     4.9    5.1   -0.4
