          17
 frame:         3899
C     0.9    0.2   -0.9
C     2.5    0.2   -0.7
C     3.0    1.4    0.0
O     2.5    1.4    1.4
C     2.7    2.5    2.1
C     4.5    1.5    0.0
C     5.7    1.5   -0.0
H     0.6   -0.7   -1.4
H     0.6    1.1   -1.4
H     0.5    0.2    0.1
H     3.0    0.2   -1.7
H     2.8   -0.7   -0.2
H     2.6    2.3   -0.5
H     2.2    2.4    3.1
H     2.3    3.4    1.6
H     3.8    2.7    2.2
H     6.8    1.5   -0.0
