          13
 frame:          610
N     5.3   -2.0   -0.3
C     4.5   -1.1   -0.2
C     3.6    0.0    0.0
C     4.4    1.4    0.1
C     4.8    2.1   -1.1
C     3.6    2.6   -0.2
H     3.1   -0.2    0.9
H     2.9    0.0   -0.8
H     5.1    1.4    1.0
H     4.5    1.7   -2.0
H     5.7    2.6   -1.1
H     3.8    3.5    0.4
H     2.6    2.5   -0.6
