          13
 frame:         4082
C     2.1   -0.4    1.5
C     2.5   -0.0    0.1
O     1.3   -0.1   -0.8
C     1.1   -1.3   -1.5
O     1.9   -2.2   -1.4
C     3.0    1.4   -0.0
C     3.4    2.5   -0.1
H     3.0   -0.3    2.1
H     1.8   -1.5    1.5
H     1.3    0.2    1.9
H     3.2   -0.7   -0.3
H     0.2   -1.2   -2.1
H     3.8    3.5   -0.1
