          16
 frame:         1589
C     0.9   -1.6    0.6
C     1.5   -0.2    0.6
N     0.6    0.2   -0.5
C    -0.2    1.5   -0.2
C    -1.4    0.9    0.5
C    -1.5   -0.4    0.4
C    -0.3   -1.0   -0.3
H     1.4   -2.3    0.1
H     0.6   -2.0    1.6
H     2.6   -0.1    0.4
H     1.3    0.4    1.6
H     0.4    2.2    0.4
H    -0.5    2.0   -1.2
H    -2.2    1.6    0.9
H    -2.3   -1.0    0.8
H    -0.5   -1.5   -1.2
