          18
 frame:         4637
C     0.9   -0.1    0.1
C     2.4    0.0    0.0
C     3.2    1.1    0.8
C     4.2    0.0    1.2
C     5.5    0.1    0.4
O     6.4    1.1    0.8
N     3.2   -1.0    0.8
H     0.6   -1.0   -0.4
H     0.4    0.8   -0.3
H     0.6   -0.1    1.2
H     2.7    0.1   -1.1
H     2.6    1.5    1.7
H     3.5    2.0    0.3
H     4.5   -0.1    2.3
H     5.3    0.2   -0.7
H     6.0   -0.9    0.6
H     5.9    2.0    0.7
H     3.6   -1.7    0.2
