          15
 frame:         6510
O     1.4    0.2    0.9
C     2.4    0.1    0.3
C     3.1   -1.3   -0.0
C     4.0   -1.3   -1.2
C     4.9   -0.1   -1.1
N     4.1    1.2   -1.2
N     3.1    1.2   -0.1
H     2.2   -2.0   -0.1
H     3.6   -1.6    0.9
H     4.6   -2.2   -1.3
H     3.4   -1.2   -2.2
H     5.5   -0.1   -0.2
H     5.6   -0.0   -2.0
H     4.7    2.0   -1.0
H     2.5    2.0   -0.2
