          18
 frame:         5908
C     1.6   -0.2    0.2
O     3.0    0.0    0.2
C     3.4    1.4    0.1
C     4.9    1.5    0.1
N     5.5    1.1    1.4
C     5.7    1.4   -1.1
C     5.5    2.7   -0.5
H     1.4   -1.2    0.3
H     1.1    0.2   -0.8
H     1.1    0.4    1.0
H     2.9    2.0    0.9
H     3.0    1.8   -0.9
H     5.2    0.1    1.5
H     5.2    1.6    2.2
H     5.1    1.1   -2.0
H     6.6    0.9   -1.0
H     6.3    3.2   -0.0
H     4.8    3.5   -1.0
