          15
 frame:         4274
O     1.3   -0.1    1.0
C     2.5    0.0    0.2
C     2.5    0.8   -1.1
C     3.8    1.2   -1.7
C     4.5   -0.1   -1.9
C     3.8   -1.1   -1.6
C     2.5   -0.8   -1.0
H     1.2    0.8    1.4
H     3.5   -0.0    0.8
H     1.5    1.3   -1.3
H     4.3    1.9   -1.0
H     3.6    1.8   -2.6
H     5.5   -0.1   -2.3
H     4.1   -2.2   -1.7
H     1.6   -1.4   -1.2
