          19
 frame:         3836
C     0.5    0.2   -0.4
C     1.7    0.0    0.4
C     2.6    1.3    0.6
C     1.9    2.3    1.4
O     2.7    3.5    1.6
O     3.8    1.0    1.2
C     4.8    0.5    0.3
H    -0.1   -0.7   -0.6
H     0.7    0.6   -1.4
H    -0.3    0.9    0.1
H     2.3   -0.8   -0.1
H     1.5   -0.4    1.4
H     2.8    1.7   -0.4
H     1.7    1.9    2.4
H     1.0    2.7    1.0
H     3.6    3.1    1.8
H     5.7    0.4    0.9
H     5.0    1.1   -0.5
H     4.5   -0.5   -0.1
