          13
 frame:         1052
C     1.0   -0.0    0.1
N     2.5    0.0    0.1
C     3.1    1.1    0.9
C     4.1   -0.0    1.4
O     5.1   -0.0    2.0
C     3.2   -1.1    0.8
H     0.7   -0.9   -0.5
H     0.6    0.9   -0.4
H     0.6   -0.1    1.1
H     2.5    1.5    1.7
H     3.6    1.9    0.3
H     3.6   -1.8    0.1
H     2.6   -1.6    1.5
