          14
 frame:          745
C     0.9    0.2   -0.0
C     2.4    0.1   -0.1
C     2.9   -0.5   -1.4
C     3.8   -1.4   -1.6
C     3.0    1.5    0.1
O     2.5    2.5    0.2
H     0.5    0.6    0.9
H     0.4   -0.8   -0.1
H     0.5    0.8   -0.8
H     2.8   -0.6    0.7
H     2.5   -0.0   -2.3
H     4.3   -1.9   -0.7
H     4.2   -1.8   -2.5
H     4.2    1.4    0.1
