          14
 frame:         6260
N     1.2   -0.1    0.2
C     2.5    0.0    0.1
C     3.3   -1.2   -0.1
C     2.8   -2.5    0.1
C     3.1    1.2    0.1
C     4.6    1.5    0.1
O     5.1    2.6    0.1
H     0.6    0.8    0.2
H     0.7   -0.9   -0.2
H     4.3   -1.1   -0.5
H     1.8   -2.6    0.6
H     3.4   -3.4   -0.0
H     2.5    2.1    0.2
H     5.2    0.6    0.0
