          20
 frame:         2195
C     2.6   -1.5    1.0
C     3.6   -0.8    0.1
C     3.3    0.6   -0.2
C     4.0    1.7    0.1
C     3.6    3.1   -0.2
N     4.6    3.8   -1.0
C     4.3    5.1   -1.3
H     2.9   -2.6    1.1
H     1.6   -1.5    0.5
H     2.5   -1.0    1.9
H     3.7   -1.4   -0.9
H     4.6   -0.9    0.5
H     2.3    0.7   -0.8
H     5.0    1.5    0.6
H     3.5    3.6    0.7
H     2.6    3.1   -0.7
H     4.8    3.2   -1.9
H     4.3    5.7   -0.4
H     3.3    5.3   -1.8
H     5.0    5.6   -2.0
