          16
 frame:         5339
C     1.0   -0.0    0.0
C     2.5   -0.0   -0.0
N     3.1   -0.8   -1.2
C     3.0    1.4   -0.0
C     3.4    2.5   -0.0
C     3.9    3.9   -0.0
O     2.8    4.8   -0.5
H     0.6    0.5    0.9
H     0.6   -1.1    0.0
H     0.6    0.5   -0.9
H     2.9   -0.5    0.9
H     2.8   -0.3   -2.0
H     2.7   -1.7   -1.2
H     4.8    3.9   -0.7
H     4.2    4.1    1.0
H     3.2    5.7   -0.4
