          17
 frame:         1236
C    -1.4    0.7    0.2
C    -1.5   -0.8   -0.1
C    -0.3   -1.6    0.2
C     1.0   -1.2    0.3
C     1.6    0.1    0.1
C     1.0    1.3   -0.3
C    -0.4    1.5   -0.6
H    -2.4    1.1    0.1
H    -1.2    0.8    1.3
H    -1.7   -0.9   -1.2
H    -2.4   -1.2    0.4
H    -0.5   -2.7    0.5
H     1.7   -2.0    0.7
H     2.7    0.1    0.2
H     1.7    2.1   -0.5
H    -0.6    2.6   -0.3
H    -0.6    1.4   -1.6
