          16
 frame:         5968
C     1.7   -0.5   -0.5
O     3.0   -0.1   -0.4
C     3.1    1.3    0.0
C     4.6    1.7   -0.0
N     5.3    1.6   -1.3
C     4.8    3.0    0.5
C     4.8    4.2    1.0
H     1.7   -1.6   -0.8
H     1.1    0.1   -1.2
H     1.2   -0.5    0.5
H     2.7    1.4    1.1
H     2.5    2.0   -0.6
H     5.2    1.0    0.7
H     4.9    2.3   -1.9
H     5.0    0.7   -1.7
H     4.9    5.2    1.3
