          15
 frame:         3650
C     1.0    0.4    0.3
C     2.4    0.3   -0.2
C     2.6   -0.2   -1.6
C     2.1   -1.6   -1.8
C     1.8   -2.7   -1.9
C     3.1    1.7    0.0
O     3.8    2.3   -0.8
H     0.9    0.8    1.3
H     0.5   -0.6    0.2
H     0.4    1.1   -0.4
H     3.0   -0.4    0.5
H     3.7   -0.1   -1.9
H     2.1    0.5   -2.3
H     1.4   -3.7   -2.0
H     3.0    2.1    1.1
