          16
 frame:         6266
N     0.9    0.0   -0.0
C     2.4   -0.0   -0.0
C     3.0    1.4   -0.0
C     4.4    1.4   -0.0
C     5.6    1.4    0.0
C     7.1    1.5   -0.0
O     7.6    2.8   -0.0
H     0.5   -0.9    0.1
H     0.6    0.3   -0.9
H     2.8   -0.6   -0.9
H     2.7   -0.6    0.9
H     2.6    1.9    0.9
H     2.6    2.0   -0.9
H     7.5    0.9   -0.9
H     7.5    1.0    0.9
H     7.1    3.3   -0.7
