          19
 frame:         4210
C     2.0   -0.6    1.1
O     3.3    0.1    1.1
C     3.3    1.4    0.4
C     2.6    2.5    1.2
C     4.8    1.7    0.1
C     5.7    1.9    1.3
O     5.3    0.7   -0.8
H     2.2   -1.6    1.5
H     1.7   -0.7    0.0
H     1.3   -0.0    1.7
H     2.8    1.3   -0.6
H     3.1    2.6    2.2
H     1.5    2.3    1.4
H     2.7    3.5    0.8
H     4.8    2.6   -0.6
H     5.6    1.1    1.9
H     5.4    2.8    1.8
H     6.7    2.1    0.9
H     5.0   -0.2   -0.3
