          18
 frame:         4772
C     1.0   -0.1    0.0
C     2.5    0.0    0.1
C     3.2    1.1    1.0
O     2.4    1.5    2.1
C     4.2    0.0    1.2
N     3.2   -1.0    0.8
C     3.7   -2.2    0.1
H     0.7   -1.0   -0.5
H     0.5    0.8   -0.6
H     0.5   -0.1    1.0
H     2.9    0.1   -1.0
H     3.5    2.0    0.5
H     2.1    0.7    2.6
H     5.1    0.1    0.5
H     4.6   -0.1    2.3
H     2.8   -2.8   -0.2
H     4.3   -2.8    0.8
H     4.3   -2.0   -0.7
