          14
 frame:         6563
O     1.0    0.0   -0.2
C     2.4    0.1   -0.1
C     3.0    1.1    0.9
N     4.3    0.6    1.2
C     4.2   -0.8    1.4
C     3.0   -1.2    0.6
O     2.4   -2.3    0.6
H     0.8   -0.9   -0.1
H     2.9    0.1   -1.1
H     2.4    1.2    1.8
H     3.1    2.1    0.4
H     5.0    0.8    0.5
H     5.1   -1.4    1.0
H     4.0   -1.1    2.4
