          15
 frame:         1379
C     1.0   -0.3    0.4
C     2.5   -0.1    0.3
C     3.1    1.1   -0.0
C     2.4    2.4   -0.4
C     3.0    3.5   -0.7
C     4.6    1.1   -0.0
C     5.8    1.2   -0.0
H     0.8   -1.2   -0.2
H     0.4    0.5    0.1
H     0.8   -0.6    1.4
H     3.1   -0.9    0.6
H     1.3    2.3   -0.3
H     4.1    3.6   -0.7
H     2.4    4.4   -0.9
H     6.8    1.2   -0.0
