          13
 frame:         1005
C     1.0   -0.6   -0.7
C     2.2   -0.4   -0.1
C     3.1    0.8   -0.4
N     4.4    0.3   -0.8
C     5.6    0.7   -0.2
O     5.6    1.4    0.8
H     0.4   -1.5   -0.4
H     0.6    0.1   -1.4
H     2.6   -1.1    0.7
H     3.3    1.4    0.5
H     2.6    1.4   -1.1
H     4.5   -0.3   -1.6
H     6.5    0.2   -0.7
