          16
 frame:         6034
C     1.6   -0.4    0.4
O     3.0   -0.3    0.2
N     3.3    1.0    0.1
C     4.6    1.2   -0.1
C     5.6    0.1   -0.1
C     5.1    2.6   -0.2
O     6.0    3.0    0.9
H     1.4   -1.5    0.5
H     1.0    0.0   -0.5
H     1.3    0.1    1.3
H     5.5   -0.5   -1.0
H     5.5   -0.6    0.7
H     6.6    0.5   -0.0
H     4.2    3.3   -0.2
H     5.7    2.8   -1.1
H     5.5    3.0    1.7
