          15
 frame:         1841
C     1.0    0.0   -0.0
N     2.4   -0.0   -0.0
C     3.3    1.1    0.0
N     4.5    0.7    0.0
C     4.5   -0.6    0.0
C     3.2   -1.1   -0.0
C     2.7   -2.5   -0.0
H     0.7    1.1   -0.0
H     0.6   -0.5    0.9
H     0.6   -0.5   -0.9
H     2.9    2.1    0.0
H     5.5   -1.2    0.0
H     1.6   -2.6   -0.0
H     3.1   -3.1    0.9
H     3.0   -3.1   -0.9
