          14
 frame:         4564
C    -1.4    0.6    0.1
C    -1.5   -0.9   -0.2
C    -0.3   -1.6    0.2
C     0.9   -1.1    0.4
C     1.4    0.3    0.2
N     0.9    1.3   -0.3
O    -0.5    1.4   -0.7
H    -2.3    1.1   -0.1
H    -1.1    0.8    1.2
H    -1.7   -1.0   -1.3
H    -2.4   -1.3    0.3
H    -0.4   -2.7    0.4
H     1.7   -1.8    0.8
H     2.5    0.4    0.4
