          19
 frame:         3696
C     1.1   -0.1    0.2
C     2.6   -0.2    0.1
C     3.2    1.2   -0.0
C     4.8    1.1   -0.1
C     5.4    2.5   -0.4
C     5.3    0.7    1.3
O     6.0   -0.3    1.5
H     0.6   -1.1    0.3
H     0.7    0.4   -0.7
H     0.7    0.5    1.0
H     2.9   -0.8   -0.7
H     2.9   -0.7    1.1
H     2.9    1.9    0.8
H     2.9    1.7   -0.9
H     5.1    0.4   -0.8
H     5.2    3.2    0.4
H     5.0    2.9   -1.3
H     6.5    2.4   -0.5
H     5.0    1.3    2.2
