          21
 frame:         2422
C     0.9   -0.9    0.2
C     2.0   -0.1   -0.5
C     2.7   -1.0   -1.6
N     3.3   -2.2   -1.0
N     1.7    1.2   -1.1
C     0.6    1.2   -2.1
C     1.5    2.2   -0.0
H     0.5   -0.3    1.0
H     1.2   -1.9    0.5
H     0.0   -1.1   -0.5
H     2.8    0.0    0.2
H     3.3   -0.4   -2.2
H     1.9   -1.4   -2.3
H     4.2   -1.9   -0.6
H     3.6   -2.9   -1.7
H     0.8    0.5   -2.9
H     0.6    2.2   -2.5
H    -0.4    1.0   -1.6
H     2.3    2.2    0.7
H     0.5    2.0    0.5
H     1.4    3.2   -0.5
