          15
 frame:         5732
C     1.0   -0.1   -0.3
N     2.4    0.0    0.1
C     3.1   -1.2    0.4
C     3.1    1.2   -0.3
N     2.7    2.2   -1.0
C     4.5    1.4    0.2
O     5.2    0.8    0.9
H     0.5    0.8   -0.1
H     0.6   -0.9    0.2
H     0.9   -0.2   -1.4
H     2.5   -1.7    1.2
H     4.1   -1.0    0.8
H     3.1   -1.9   -0.5
H     1.7    2.1   -1.3
H     4.9    2.4   -0.2
