          16
 frame:         5550
C     3.8   -2.0   -0.9
C     4.2   -0.9    0.1
O     4.2    0.4   -0.5
C     4.4    1.5    0.3
O     5.7    1.7    0.7
N     6.0    1.0    1.9
C     7.2    1.2    2.3
H     3.7   -3.0   -0.4
H     4.5   -2.0   -1.7
H     2.8   -1.8   -1.3
H     5.1   -1.1    0.6
H     3.4   -0.9    1.0
H     3.8    1.4    1.2
H     4.1    2.4   -0.3
H     7.5    0.7    3.2
H     8.0    1.7    1.7
