          15
 frame:         5664
C     1.0    0.2   -0.1
N     2.4    0.2    0.1
C     3.2    1.3   -0.1
N     4.4    1.3   -0.4
C     4.9    2.7   -0.3
C     3.5    3.5   -0.1
O     2.6    2.5    0.2
H     0.6   -0.7    0.3
H     0.7    0.3   -1.1
H     0.5    1.0    0.5
H     2.9   -0.7   -0.2
H     5.5    2.8    0.6
H     5.5    3.0   -1.1
H     3.2    4.0   -1.1
H     3.5    4.2    0.7
