          21
 frame:         1433
C     3.3   -1.4    0.6
C     2.6   -0.1    1.0
C     2.4   -0.1    2.5
C     3.3    1.2    0.5
C     2.4    2.5    0.7
C     4.7    1.4    1.1
C     5.8    1.3    0.4
H     3.4   -1.4   -0.5
H     2.8   -2.3    0.9
H     4.3   -1.4    1.0
H     1.6   -0.1    0.6
H     3.4   -0.2    3.1
H     1.8   -1.0    2.9
H     1.9    0.8    2.9
H     3.4    1.0   -0.6
H     2.3    2.7    1.8
H     1.4    2.3    0.3
H     2.9    3.3    0.2
H     4.7    1.6    2.1
H     5.8    1.1   -0.7
H     6.8    1.5    0.9
