          14
 frame:         6385
N     1.3    0.1    0.9
C     2.0    0.3   -0.2
O     1.7   -0.1   -1.3
C     3.2    1.2   -0.1
C     3.0    2.7   -0.6
C     3.3    3.1    0.8
O     3.4    1.7    1.3
H     1.7    0.5    1.8
H     0.5   -0.6    0.9
H     4.1    0.7   -0.5
H     2.0    2.9   -0.9
H     3.7    3.0   -1.4
H     4.3    3.6    1.0
H     2.6    3.7    1.4
