          14
 frame:         6245
N     2.9   -1.0   -2.3
C     3.2   -0.5   -1.2
C     3.6    0.1    0.0
C     4.4    1.4   -0.2
C     3.6    2.6   -0.6
C     4.2    3.2    0.7
O     4.7    2.0    1.1
H     4.2   -0.7    0.6
H     2.7    0.3    0.6
H     5.3    1.1   -0.8
H     2.5    2.5   -0.6
H     4.0    3.1   -1.6
H     5.0    4.0    0.5
H     3.5    3.6    1.4
