          13
 frame:         4023
C     2.2    3.1   -0.8
C     3.2    2.3   -0.7
O     4.5    2.8   -0.4
C     5.5    1.9   -0.2
C     6.7    2.3    0.1
C     7.8    1.4    0.2
O     9.0    1.6    0.5
H     1.2    2.7   -1.1
H     2.3    4.2   -0.7
H     3.2    1.2   -0.9
H     5.3    0.9   -0.4
H     7.0    3.4    0.3
H     7.5    0.3    0.0
