          12
 frame:         6706
O     1.8   -1.1   -0.7
C     1.7    0.0   -0.2
C     2.9    0.9    0.1
C     4.2    0.3    0.1
C     5.1    0.4    1.1
C     6.4   -0.2    1.0
N     7.5   -0.7    1.0
H     0.7    0.5   -0.1
H     2.7    1.4    1.1
H     2.8    1.8   -0.6
H     4.4   -0.4   -0.8
H     5.0    1.0    1.9
