          14
 frame:         4653
C     1.0   -0.0    0.0
C     2.5    0.1   -0.0
C     3.3    1.2   -0.1
C     4.6    0.7   -0.1
N     5.8    1.5   -0.2
C     4.5   -0.7   -0.0
O     3.2   -1.1    0.0
H     0.5    0.9   -0.0
H     0.6   -0.6    0.9
H     0.6   -0.6   -0.8
H     3.0    2.2   -0.1
H     5.8    2.3    0.3
H     6.7    1.0    0.1
H     5.2   -1.5    0.0
