          20
 frame:         2483
C     1.0   -0.3    0.0
C     2.5   -0.2   -0.1
N     3.1   -1.0   -1.2
C     3.0    1.2   -0.1
C     4.6    1.3    0.1
C     5.1    2.7   -0.0
C     5.7    3.4    0.9
H     0.6    0.2    0.9
H     0.6   -1.3    0.0
H     0.6    0.2   -0.9
H     2.9   -0.7    0.8
H     2.7   -0.6   -2.1
H     2.9   -1.9   -1.2
H     2.5    1.8    0.7
H     2.7    1.7   -1.0
H     5.0    0.7   -0.7
H     4.9    0.9    1.1
H     4.8    3.2   -1.0
H     6.0    3.0    1.9
H     6.0    4.5    0.7
