          19
 frame:         1397
C     0.8    0.8    1.1
C     2.3    0.8    1.0
C     3.0    1.4   -0.0
C     4.5    1.3   -0.1
C     5.2    2.7    0.0
C     5.9    3.3   -1.0
C     6.5    4.7   -0.9
H     0.4   -0.1    1.0
H     0.4    1.4    0.2
H     0.5    1.3    2.0
H     2.8    0.2    1.7
H     2.5    2.0   -0.8
H     4.8    0.9   -1.1
H     4.9    0.7    0.7
H     5.0    3.2    0.9
H     6.0    2.8   -1.9
H     6.3    5.1    0.1
H     6.1    5.3   -1.7
H     7.6    4.6   -1.0
