          15
 frame:         3218
C     1.1    0.1   -0.0
C     2.5   -0.1   -0.1
C     3.3   -1.2    0.0
C     4.7   -0.8   -0.2
C     4.6    0.7   -0.4
C     5.6    1.6   -0.7
O     3.3    1.0   -0.4
H     0.5   -0.8    0.2
H     0.7    0.6   -0.9
H     0.8    0.8    0.8
H     2.9   -2.2    0.2
H     5.3   -1.1    0.7
H     5.2   -1.4   -1.1
H     6.6    1.3   -0.7
H     5.3    2.6   -0.8
