          15
 frame:         3117
C    -1.7    0.7    0.3
C    -1.6   -0.7   -0.4
C    -0.1   -0.6    0.1
O     1.2   -0.9   -0.5
C     2.0    0.2   -0.0
O     1.1    1.3    0.4
C    -0.2    0.8   -0.1
H    -2.4    1.4   -0.1
H    -1.8    0.6    1.4
H    -1.7   -0.7   -1.5
H    -2.2   -1.5    0.0
H    -0.1   -0.9    1.1
H     2.6   -0.0    0.9
H     2.6    0.6   -0.9
H    -0.2    1.1   -1.2
