          18
 frame:         6243
N     0.8    0.1   -0.0
C     2.3   -0.1   -0.2
C     3.0    1.2    0.2
C     4.5    1.1    0.1
C     5.4    2.0    0.8
C     5.4    0.6    1.2
O     6.5   -0.3    0.9
H     0.4   -0.8   -0.3
H     0.5    0.8   -0.7
H     2.6   -0.3   -1.3
H     2.6   -0.9    0.4
H     2.7    1.4    1.2
H     2.6    2.0   -0.4
H     4.9    0.9   -1.0
H     5.0    2.8    1.6
H     6.3    2.4    0.3
H     4.8    0.3    2.1
H     7.0    0.1    0.3
