          15
 frame:         5605
C     1.0   -0.0    0.1
N     2.5   -0.0    0.1
C     3.0    1.1    0.8
C     4.4    0.7    1.3
C     4.2   -0.9    1.4
O     5.0   -1.7    1.8
N     3.0   -1.1    0.8
H     0.6   -0.9   -0.5
H     0.7    0.9   -0.4
H     0.6   -0.0    1.1
H     2.4    1.3    1.7
H     3.0    2.0    0.2
H     5.2    0.8    0.5
H     4.8    1.1    2.2
H     2.9   -2.0    0.4
