          14
 frame:         5935
C     1.1   -0.2   -0.2
O     2.5   -0.1   -0.1
C     3.0    1.2    0.0
C     4.5    1.1    0.1
C     5.3    0.0    0.1
C     5.2    2.4    0.2
N     5.6    3.5    0.3
H     0.8   -1.2   -0.3
H     0.8    0.4   -1.1
H     0.7    0.2    0.7
H     2.6    1.7    0.9
H     2.7    1.8   -0.8
H     4.8   -0.9    0.0
H     6.4    0.1    0.2
