          17
 frame:         2404
C     1.0    0.2   -1.3
C     2.5    0.4   -1.1
C     3.0    1.5   -0.4
N     4.3    1.8   -0.2
C     4.8    2.9    0.4
N     6.1    3.1    0.6
C     6.5    4.3    1.3
H     0.8    0.1   -2.4
H     0.4    1.0   -0.9
H     0.7   -0.8   -0.9
H     3.2   -0.3   -1.5
H     2.3    2.2   -0.0
H     5.0    1.1   -0.6
H     4.0    3.5    0.8
H     7.0    4.0    2.2
H     5.6    4.9    1.6
H     7.1    4.9    0.7
