          14
 frame:          710
C     0.9    0.1   -0.2
C     2.4   -0.0    0.1
O     2.7   -1.2    0.9
C     3.5   -0.9    2.1
C     3.5    0.6    2.1
C     3.0    1.1    1.0
H     0.6   -0.8   -0.7
H     0.7    0.9   -0.8
H     0.3    0.2    0.8
H     3.0   -0.1   -0.8
H     4.5   -1.4    2.0
H     3.0   -1.3    3.0
H     4.0    1.2    2.9
H     2.9    2.1    0.7
