          15
 frame:         3235
C     1.0    0.1    0.0
C     2.5   -0.0    0.0
C     3.2   -1.1    0.0
C     4.6   -0.7    0.1
C     5.8   -1.5    0.1
O     4.7    0.7    0.1
C     3.3    1.2    0.1
H     0.5   -0.9   -0.1
H     0.6    0.6   -0.9
H     0.6    0.6    0.9
H     2.9   -2.2   -0.0
H     6.7   -1.0    0.1
H     5.7   -2.6    0.0
H     3.2    1.8   -0.8
H     3.2    1.8    1.0
