          14
 frame:         5854
C     1.4    2.4    0.6
N     2.6    2.4    0.1
O     3.2    1.1    0.3
C     4.5    1.2   -0.2
C     5.6    1.6    0.9
O     6.3    0.3    0.7
C     5.2   -0.2   -0.1
H     0.9    3.4    0.5
H     0.9    1.5    1.0
H     4.6    1.7   -1.1
H     5.2    1.7    1.9
H     6.2    2.5    0.6
H     5.6   -0.6   -1.1
H     4.6   -0.9    0.4
