          20
 frame:         5969
C     1.7   -0.8   -0.6
O     3.0   -0.2   -0.3
C     3.0    1.2   -0.3
C     4.4    1.7    0.0
N     4.5    3.1    0.2
C     5.8    3.5    0.8
C     4.3    3.9   -1.0
H     1.8   -1.9   -0.5
H     1.3   -0.5   -1.6
H     0.9   -0.4    0.2
H     2.3    1.6    0.5
H     2.6    1.6   -1.2
H     5.0    1.3   -0.8
H     4.7    1.2    1.0
H     5.9    2.9    1.8
H     5.8    4.5    1.0
H     6.6    3.2    0.2
H     3.3    3.7   -1.4
H     5.0    3.6   -1.8
H     4.3    4.9   -0.8
