          16
 frame:         5232
C     0.9   -0.0   -0.0
C     2.5   -0.1    0.0
C     3.0   -0.8    1.3
O     3.0   -0.8   -1.1
C     3.0    1.4   -0.0
C     4.5    1.5    0.0
N     5.6    1.5    0.1
H     0.6    0.5   -0.9
H     0.5    0.5    0.9
H     0.5   -1.0   -0.0
H     2.7   -0.3    2.2
H     4.1   -0.9    1.2
H     2.6   -1.8    1.3
H     2.6   -0.4   -1.9
H     2.6    2.0    0.9
H     2.7    1.9   -0.9
