          18
 frame:         1543
C     1.9    0.1   -0.7
C     1.9   -0.1    0.8
C     0.6    0.0   -0.0
C    -0.4    1.2    0.2
C    -1.7    0.7   -0.2
N    -1.7   -0.7    0.2
C    -0.4   -1.2   -0.3
H     2.2    1.1   -1.1
H     2.2   -0.7   -1.4
H     2.1   -1.1    1.1
H     2.1    0.7    1.4
H    -0.4    1.5    1.3
H    -0.1    2.1   -0.4
H    -2.6    1.2    0.3
H    -1.9    0.8   -1.3
H    -2.4   -1.3   -0.1
H    -0.4   -1.4   -1.4
H    -0.1   -2.1    0.3
