          19
 frame:         2594
C     1.0    0.0    0.0
N     2.5    0.0    0.1
C     3.1    1.1    0.9
C     4.2    0.0    1.4
C     3.1   -1.1    0.9
C     3.6   -2.3    0.1
N     4.3   -3.2    1.0
H     0.7   -0.9   -0.6
H     0.7    0.9   -0.5
H     0.6   -0.0    1.0
H     2.5    1.4    1.8
H     3.5    1.9    0.4
H     5.1    0.0    0.8
H     4.5   -0.0    2.5
H     2.5   -1.4    1.7
H     4.3   -1.9   -0.7
H     2.8   -2.8   -0.4
H     5.2   -2.8    1.3
H     4.5   -4.1    0.5
