          15
 frame:         4126
C     2.0   -0.3   -1.6
O     2.2    0.2   -0.3
C     3.3    1.2   -0.2
C     3.5    1.6    1.3
O     3.0    2.9    1.5
C     2.8    3.4    0.2
C     3.0    2.5   -0.8
H     1.3   -1.1   -1.5
H     3.0   -0.7   -2.0
H     1.7    0.5   -2.3
H     4.2    0.7   -0.6
H     4.5    1.6    1.6
H     2.9    0.9    2.0
H     2.5    4.4    0.1
H     2.9    2.7   -1.9
