          19
 frame:          557
C     1.1    1.9    1.1
N     2.6    2.0    1.1
C     3.2    1.4   -0.1
C     4.7    1.5   -0.1
C     5.3    0.8   -1.3
C     5.2    3.0   -0.1
H     0.7    2.3    2.1
H     0.7    0.9    1.0
H     0.7    2.5    0.3
H     3.0    1.5    1.9
H     2.8    2.0   -1.0
H     2.9    0.4   -0.3
H     5.1    1.0    0.8
H     5.0    1.2   -2.2
H     5.0   -0.3   -1.3
H     6.4    0.8   -1.3
H     4.9    3.5   -1.0
H     6.3    3.0    0.0
H     4.7    3.5    0.8
