          13
 frame:         6624
O     1.7   -0.6   -0.8
C     2.0    0.2    0.1
C     3.1    1.2   -0.0
C     3.6    1.5   -1.5
C     3.5    3.0   -1.6
N     3.0    3.5   -0.5
N     2.6    2.5    0.4
H     1.5    0.2    1.1
H     4.0    0.9    0.6
H     2.9    1.0   -2.2
H     4.6    1.1   -1.7
H     3.8    3.6   -2.4
H     2.8    2.8    1.4
