          19
 frame:         3932
C     1.0   -0.2   -0.1
C     2.5   -0.1    0.0
C     3.1    1.3    0.1
O     2.5    2.0    1.3
C     4.6    1.3    0.1
C     5.2    2.7   -0.0
O     5.0    0.7    1.4
H     0.6   -1.2   -0.1
H     0.6    0.3   -1.0
H     0.5    0.3    0.8
H     3.0   -0.6   -0.8
H     2.9   -0.7    0.9
H     2.7    1.9   -0.8
H     3.0    1.6    2.0
H     5.0    0.7   -0.7
H     4.8    3.4    0.8
H     4.9    3.1   -1.0
H     6.3    2.7    0.1
H     5.9    1.0    1.6
