          18
 frame:         1833
C     0.9    0.1   -0.1
C     2.4   -0.0    0.2
C     3.2    1.2   -0.3
N     3.3    1.1   -1.8
C     4.2    0.1   -2.2
C     3.9   -1.2   -1.5
C     3.0   -1.3   -0.5
H     0.5    0.9    0.5
H     0.4   -0.9    0.2
H     0.8    0.2   -1.2
H     2.6   -0.1    1.3
H     2.6    2.1   -0.1
H     4.2    1.3    0.2
H     3.7    2.0   -2.1
H     5.3    0.3   -1.9
H     4.2   -0.1   -3.3
H     4.3   -2.1   -1.9
H     2.8   -2.2   -0.0
