          12
 frame:         5999
C     1.0    0.0   -0.5
O     2.4    0.2   -0.3
C     3.0    1.4   -0.1
N     2.6    2.6   -0.1
O     1.1    2.7   -0.2
C     4.4    1.2   -0.0
C     5.6    1.1    0.1
H     0.8   -1.1   -0.6
H     0.6    0.6   -1.4
H     0.4    0.4    0.4
H     1.1    3.7   -0.1
H     6.7    1.0    0.2
