          14
 frame:         2156
C     1.0   -0.0   -0.0
C     2.4   -0.0   -0.0
C     3.6   -0.0   -0.0
C     5.0   -0.0    0.0
C     6.2    0.0    0.0
C     7.7    0.0   -0.0
N     8.2    1.4    0.0
H     0.6    1.0    0.0
H     0.6   -0.5    0.9
H     0.6   -0.5   -0.9
H     8.0   -0.6   -0.9
H     8.0   -0.5    0.9
H     7.9    1.9   -0.8
H     9.2    1.4   -0.1
