          17
 frame:         1497
C     1.0   -0.1   -0.0
C     2.5   -0.1   -0.0
C     3.0    1.3   -0.0
C     3.4    2.5    0.0
C     3.9    3.9    0.0
C     2.7    4.8   -0.1
C     2.5    5.8    0.8
H     0.7   -1.2   -0.0
H     0.6    0.4   -0.9
H     0.6    0.3    0.9
H     2.9   -0.6   -0.9
H     2.9   -0.6    0.8
H     4.6    4.0   -0.8
H     4.4    4.1    1.0
H     2.1    4.7   -1.0
H     3.1    6.0    1.6
H     1.6    6.5    0.6
