          12
 frame:         6710
O     1.0    0.0   -0.0
C     2.4    0.1    0.0
C     2.9   -0.7   -1.2
C     4.3   -0.9   -1.3
C     5.5   -1.1   -1.3
C     2.9    1.4    0.1
N     3.3    2.5    0.1
H     0.7    0.6    0.7
H     2.8   -0.5    0.9
H     2.6   -0.1   -2.1
H     2.4   -1.7   -1.3
H     6.6   -1.2   -1.3
