          17
 frame:         6734
O     2.6   -0.7    0.9
C     2.2    0.1   -0.2
C     2.8    1.5    0.0
C     4.4    1.5   -0.0
N     5.0    2.8    0.2
C     5.2    3.7   -0.8
N     5.4    5.0   -0.7
H     2.2   -1.6    0.8
H     1.1    0.2   -0.2
H     2.5   -0.3   -1.2
H     2.5    1.9    1.0
H     2.5    2.2   -0.8
H     4.7    1.1   -1.0
H     4.8    0.8    0.7
H     5.0    3.2    1.2
H     5.1    3.3   -1.8
H     5.5    5.3    0.3
