          14
 frame:         2801
C     1.2    1.4   -1.6
N     2.4    1.7   -1.2
N     2.9    1.3   -0.0
C     4.3    1.2    0.1
C     4.9    2.7   -0.0
C     6.4    2.7    0.1
N     7.5    2.6    0.1
H     0.8    1.8   -2.5
H     0.6    0.8   -0.9
H     2.4    0.5    0.4
H     4.8    0.6   -0.8
H     4.6    0.8    1.0
H     4.5    3.3    0.8
H     4.6    3.1   -1.0
