          15
 frame:         2712
C     0.8    0.3   -0.1
N     2.2    0.2    0.1
C     3.1    1.2    0.1
C     4.4    1.2    0.0
C     5.3   -0.1   -0.1
C     5.1    2.4    0.1
N     5.8    3.4    0.1
H     0.2   -0.5    0.2
H     0.6    0.5   -1.2
H     0.4    1.2    0.4
H     2.6   -0.7   -0.1
H     2.6    2.2    0.2
H     4.7   -1.0    0.0
H     6.0   -0.1    0.7
H     5.8   -0.1   -1.1
