          12
 frame:         6515
O     1.3   -0.2    0.8
C     2.4   -0.1    0.2
C     3.1    1.2   -0.1
C     4.4    0.8   -0.7
C     4.4   -0.7   -0.8
O     5.2   -1.4   -1.2
N     3.2   -1.1   -0.2
H     3.2    1.8    0.9
H     2.5    1.9   -0.7
H     4.5    1.2   -1.8
H     5.3    1.1   -0.2
H     2.9   -2.1   -0.1
