          16
 frame:          790
C     1.0   -0.2    0.1
C     2.5    0.1   -0.1
C     2.9   -0.5   -1.4
O     4.3   -0.5   -1.7
C     2.8    1.5   -0.0
C     3.9    2.0    0.7
H     0.7    0.2    1.1
H     0.7   -1.2    0.1
H     0.4    0.4   -0.6
H     3.0   -0.5    0.7
H     2.4   -0.0   -2.3
H     2.6   -1.6   -1.5
H     4.6    0.4   -1.4
H     2.2    2.2   -0.6
H     4.5    1.4    1.3
H     4.1    3.1    0.6
