          16
 frame:         5270
C     0.7   -1.0   -0.3
C     2.0   -0.3   -0.0
C     3.1   -0.8   -0.9
O     1.9    1.1   -0.3
C     1.5    1.8    0.8
N     1.4    3.2    0.4
O     1.2    1.4    1.9
H    -0.1   -0.6    0.3
H     0.8   -2.1   -0.2
H     0.4   -0.9   -1.4
H     2.3   -0.5    1.0
H     2.9   -0.7   -2.0
H     3.3   -1.9   -0.8
H     4.1   -0.3   -0.7
H     1.5    3.4   -0.6
H     0.9    3.8    1.0
