          13
 frame:         3587
C     1.1    0.3   -0.3
C     2.4    0.3    0.0
C     3.2   -0.9    0.1
C     2.5   -2.2   -0.1
C     2.0   -3.2   -0.4
C     3.1    1.6    0.3
O     4.2    1.7    0.6
H     0.5    1.3   -0.4
H     0.5   -0.6   -0.5
H     3.7   -1.0    1.1
H     4.1   -0.8   -0.5
H     1.5   -4.1   -0.6
H     2.4    2.5    0.2
