          12
 frame:         4752
C     0.9   -0.0   -0.1
C     2.5   -0.0    0.0
C     3.1   -1.2   -0.6
N     4.0   -0.9   -1.6
O     4.0    0.6   -1.7
C     3.1    1.1   -0.8
O     2.9    2.3   -0.7
H     0.6    1.0    0.3
H     0.5   -0.8    0.6
H     0.6   -0.1   -1.1
H     2.8    0.1    1.1
H     3.0   -2.2   -0.4
