          12
 frame:          380
C     1.0    0.0   -0.2
C     2.3   -0.0    0.0
C     3.2   -1.2    0.1
N     4.5   -0.6    0.6
N     4.5    0.8    0.5
C     3.2    1.1    0.2
H     0.4   -0.9   -0.3
H     0.5    0.9   -0.2
H     3.4   -1.7   -0.8
H     2.9   -2.0    0.8
H     5.4   -1.0    0.3
H     3.0    2.2    0.1
