          15
 frame:         6815
O     1.2   -0.2    0.4
N     2.6   -0.1    0.3
C     3.1    1.1   -0.3
C     4.6    0.8   -0.5
C     4.6   -0.7   -0.8
C     3.3   -1.2   -0.2
N     2.9   -2.5   -0.2
H     1.0   -0.1    1.4
H     2.9    2.0    0.3
H     2.5    1.2   -1.3
H     5.0    1.4   -1.4
H     5.1    1.1    0.4
H     4.6   -1.0   -1.9
H     5.5   -1.2   -0.3
H     2.0   -2.5    0.2
