          17
 frame:         5255
C     1.0   -0.0    0.1
C     2.5    0.0   -0.1
C     3.0   -0.8   -1.3
O     4.4   -0.9   -1.4
C     3.0    1.4   -0.2
N     3.9    1.8   -1.1
N     4.2    3.2   -1.1
H     0.7    0.6    1.0
H     0.7   -1.0    0.2
H     0.5    0.4   -0.8
H     3.0   -0.4    0.8
H     2.5   -0.4   -2.2
H     2.6   -1.9   -1.1
H     4.7    0.0   -1.6
H     2.6    2.2    0.6
H     5.1    3.3   -1.5
H     4.1    3.7   -0.2
