          20
 frame:         5138
C     1.4   -1.0    1.8
C     2.9   -0.7    1.7
C     3.2    0.2    0.5
N     4.7    0.4    0.3
C     5.0    1.3   -0.8
C     6.5    1.2   -1.0
O     7.0   -0.1   -1.1
H     1.2   -1.6    2.7
H     1.0   -1.5    0.9
H     0.8   -0.1    2.0
H     3.5   -1.6    1.6
H     3.3   -0.2    2.6
H     2.7    1.2    0.6
H     2.9   -0.3   -0.5
H     5.0    0.8    1.2
H     4.7    2.4   -0.6
H     4.5    0.9   -1.7
H     7.1    1.7   -0.1
H     6.8    1.8   -1.9
H     6.4   -0.6   -0.5
