          13
 frame:         7078
C     0.9   -0.0   -0.0
N     2.3    0.0    0.1
S     3.2    1.5   -0.0
C     4.7    0.7   -0.0
C     4.5   -0.7   -0.0
C     3.1   -1.1    0.0
N     2.8   -2.4    0.0
H     0.5    1.0    0.0
H     0.5   -0.6    0.8
H     0.5   -0.5   -0.9
H     5.6    1.2   -0.1
H     5.3   -1.4   -0.0
H     1.7   -2.5    0.0
