          18
 frame:         1888
C     0.9    0.1   -0.0
C     2.5   -0.0    0.1
N     2.9   -1.3    0.8
C     3.5   -0.9    2.0
C     3.7    0.6    2.0
C     3.1    1.1    0.9
C     3.0    2.5    0.5
H     0.5   -0.7   -0.6
H     0.6    1.0   -0.5
H     0.5    0.1    1.0
H     2.9   -0.0   -0.9
H     3.5   -1.8    0.2
H     4.5   -1.4    2.2
H     2.9   -1.2    2.9
H     4.2    1.1    2.8
H     3.5    2.7   -0.5
H     3.5    3.2    1.2
H     2.0    2.9    0.4
