          14
 frame:          842
C     2.6   -0.2    0.5
C     3.9   -0.9    0.7
O     4.6   -1.0   -0.6
C     5.5    0.1   -0.9
C     6.2   -0.1   -2.2
O     5.6    1.1   -0.1
H     2.0   -0.2    1.5
H     2.0   -0.7   -0.3
H     2.7    0.9    0.2
H     3.8   -1.9    1.0
H     4.5   -0.4    1.4
H     5.4   -0.3   -3.0
H     6.8   -1.0   -2.1
H     6.7    0.8   -2.4
