          16
 frame:         5334
C     0.9    0.0    0.1
C     2.4   -0.2   -0.0
N     2.8   -1.5   -0.2
C     3.3    0.9    0.1
C     4.7    0.9   -0.0
C     5.5   -0.3   -0.2
O     5.3    2.0    0.1
H     0.7    1.1    0.2
H     0.5   -0.6    0.9
H     0.4   -0.3   -0.9
H     2.0   -2.2   -0.5
H     3.7   -1.8   -0.5
H     2.8    1.9    0.2
H     5.4   -1.1    0.6
H     6.6   -0.1   -0.2
H     5.3   -0.8   -1.2
