          17
 frame:         2756
C     0.8    0.7   -0.8
N     2.2    0.4   -0.7
C     3.0    1.1    0.2
N     2.6    2.1    0.9
C     4.4    0.5    0.4
C     5.5    1.4    0.8
C     5.0    0.4    1.8
H     0.4   -0.0   -1.6
H     0.7    1.7   -1.2
H     0.2    0.6    0.1
H     2.5   -0.6   -0.9
H     1.7    2.4    0.7
H     4.6   -0.3   -0.3
H     5.2    2.5    0.9
H     6.5    1.2    0.3
H     5.6   -0.5    2.1
H     4.3    0.8    2.6
