          14
 frame:         5382
C     0.8    0.7   -0.0
C     2.2    0.5   -0.1
N     3.2    1.5    0.1
C     4.5    1.2    0.0
O     5.0    0.0   -0.2
C     5.4    2.4    0.2
C     6.7    2.3    0.1
H     0.1   -0.1   -0.1
H     0.5    1.7    0.1
H     2.6   -0.5   -0.2
H     2.9    2.4    0.2
H     4.9    3.4    0.3
H     7.2    1.3    0.0
H     7.4    3.1    0.3
