          15
 frame:         3338
C     1.0    0.1    0.2
C     2.5   -0.1   -0.1
C     2.8   -0.1   -1.6
O     3.3    1.0    0.5
C     4.1    0.0    1.3
C     3.3   -1.1    0.7
O     3.3   -2.3    0.8
H     0.9    0.1    1.3
H     0.5   -0.8   -0.2
H     0.6    1.0   -0.2
H     3.8   -0.1   -1.9
H     2.4    0.8   -2.1
H     2.3   -0.9   -2.1
H     5.2    0.1    1.1
H     3.9    0.1    2.4
