          14
 frame:         6048
C     1.3   -0.5    0.2
O     2.8   -0.3    0.2
N     3.0    1.0   -0.1
C     4.3    1.2   -0.2
O     4.9    2.4   -0.5
C     4.0    3.5   -0.6
C     4.5    4.7   -1.1
H     1.2   -1.5    0.5
H     0.9   -0.3   -0.8
H     0.8    0.2    0.9
H     5.1    0.4   -0.0
H     3.0    3.4   -0.1
H     5.5    4.7   -1.5
H     3.9    5.5   -1.1
