          16
 frame:         6179
N     2.3   -0.3    1.5
C     2.5   -0.0    0.1
C     3.1    1.4   -0.1
C     4.3    1.8   -0.6
C     4.4    3.3   -0.4
C     3.0    3.6    0.1
O     2.3    2.4    0.4
H     1.8   -1.2    1.6
H     1.7    0.4    1.9
H     1.6   -0.1   -0.5
H     3.3   -0.7   -0.4
H     5.1    1.1   -1.0
H     5.2    3.5    0.3
H     4.7    3.8   -1.3
H     2.4    4.1   -0.8
H     2.9    4.3    0.9
