          17
 frame:         5426
C     3.2   -0.8   -1.3
C     3.3   -0.2    0.1
N     3.4    1.3    0.1
N     2.2    1.9   -0.3
C     4.6    2.0    0.1
C     5.8    1.3    0.4
O     4.5    3.2   -0.2
H     3.1   -1.9   -1.2
H     4.2   -0.6   -1.8
H     2.4   -0.3   -1.8
H     4.1   -0.6    0.7
H     2.4   -0.5    0.7
H     2.6    2.8   -0.8
H     1.7    2.3    0.5
H     5.8    0.8    1.4
H     6.7    2.0    0.4
H     6.1    0.5   -0.3
