          19
 frame:         2300
C     1.0   -0.3   -0.1
C     2.6   -0.5    0.0
C     2.9   -1.4    1.1
C     3.1   -0.9   -1.3
N     3.1    0.9    0.3
C     4.4    1.2    0.6
N     5.0    2.3    0.6
H     0.7    0.4   -0.9
H     0.6    0.0    0.8
H     0.6   -1.3   -0.3
H     2.5   -1.1    2.1
H     4.0   -1.6    1.2
H     2.5   -2.4    0.9
H     2.9   -0.2   -2.1
H     2.7   -1.9   -1.6
H     4.2   -1.0   -1.3
H     2.5    1.7   -0.1
H     5.0    0.3    0.9
H     4.3    3.1    0.3
