          14
 frame:         6892
O     2.3   -0.3    0.3
N     3.3    0.7    0.2
C     4.5    0.1    0.3
O     5.7    0.8    0.2
C     5.5    2.3    0.1
C     6.8    2.9   -0.1
C     7.3    3.9    0.7
H     1.5    0.2    0.3
H     4.7   -1.0    0.3
H     5.0    2.6    0.9
H     4.9    2.5   -0.8
H     7.5    2.5   -0.9
H     6.7    4.3    1.5
H     8.3    4.3    0.5
