          19
 frame:         2424
C     1.8   -0.1    1.7
C     2.7   -0.3    0.5
C     2.8    0.9   -0.4
N     4.0    1.4   -0.6
N     4.1    2.5   -1.5
C     3.0    3.2   -1.9
C     5.3    3.3   -1.2
H     1.6   -0.9    2.3
H     0.8    0.2    1.4
H     2.1    0.8    2.3
H     2.4   -1.2   -0.1
H     3.7   -0.6    0.9
H     1.9    1.3   -0.8
H     2.3    2.5   -2.5
H     3.3    4.0   -2.6
H     2.4    3.6   -1.1
H     6.1    2.6   -0.9
H     5.1    4.0   -0.3
H     5.6    3.9   -2.0
