          13
 frame:         3862
C     1.5   -1.0    0.6
C     2.6   -0.6    0.2
C     3.9   -0.2   -0.3
O     4.6    0.7    0.6
C     5.8    1.2    0.1
C     6.8    0.1   -0.1
C     7.7   -0.8   -0.3
H     0.6   -1.3    1.0
H     3.8    0.4   -1.3
H     4.5   -1.1   -0.5
H     6.2    1.9    0.9
H     5.7    1.7   -0.8
H     8.4   -1.5   -0.4
