          16
 frame:         5448
C     2.6   -0.6    1.6
C     2.8   -0.2    0.1
N     3.1    1.1   -0.1
O     2.0    2.0    0.2
C     4.3    1.8   -0.3
C     5.5    0.9   -0.6
O     4.3    3.0   -0.2
H     2.3   -1.6    1.7
H     1.9    0.1    2.1
H     3.6   -0.5    2.1
H     1.8   -0.5   -0.4
H     3.5   -0.8   -0.4
H     2.5    2.9    0.2
H     5.3    0.2   -1.4
H     5.8    0.3    0.3
H     6.3    1.6   -0.9
