          17
 frame:         3582
C     2.1   -1.0    0.8
C     3.0   -0.3   -0.2
C     3.1    1.2    0.0
C     4.2    1.9    0.3
C     4.2    3.3    0.5
C     5.3    3.9    1.4
O     5.3    4.1   -0.1
H     2.1   -2.1    0.5
H     1.1   -0.6    0.8
H     2.5   -0.9    1.8
H     2.6   -0.5   -1.3
H     4.0   -0.7   -0.2
H     2.1    1.7   -0.0
H     5.2    1.4    0.3
H     3.3    3.8    0.5
H     6.1    3.3    1.8
H     5.0    4.9    1.9
