          17
 frame:         5261
C     1.2    2.4    2.0
C     0.8    1.2    1.1
C     2.0    0.7    0.3
O     1.5   -0.5   -0.5
C     2.5   -1.1   -1.2
N     3.7   -0.7   -1.3
N     4.6   -1.4   -2.1
H     0.4    2.7    2.6
H     1.6    3.2    1.4
H     2.0    2.1    2.7
H    -0.0    1.4    0.5
H     0.5    0.3    1.8
H     2.8    0.3    1.0
H     2.4    1.4   -0.3
H     2.0   -1.9   -1.8
H     5.3   -0.8   -2.4
H     4.1   -1.9   -2.9
