          15
 frame:         6227
N     2.5   -0.3    1.5
C     2.5    0.0    0.1
C     2.9    1.5   -0.1
N     3.9    1.8   -0.8
O     4.1    3.2   -0.8
C     3.0    3.8   -0.1
C     2.3    2.6    0.6
H     2.4   -1.4    1.6
H     1.6   -0.0    1.9
H     1.6   -0.1   -0.5
H     3.3   -0.6   -0.4
H     2.3    4.3   -0.8
H     3.4    4.5    0.6
H     1.2    2.7    0.5
H     2.5    2.6    1.7
