          17
 frame:         5166
C     1.3    0.1   -0.2
C     2.4   -0.7   -1.1
C     2.4   -2.2   -0.7
N     2.1   -0.5   -2.5
C     3.0    0.0   -3.2
N     2.9    0.1   -4.6
O     1.5   -0.2   -5.0
H     1.3    1.1   -0.5
H     1.5   -0.1    0.8
H     0.3   -0.3   -0.5
H     3.4   -0.3   -0.8
H     1.4   -2.6   -1.0
H     2.5   -2.4    0.3
H     3.1   -2.7   -1.3
H     4.0    0.3   -2.9
H     3.1    1.0   -5.0
H     1.1   -0.4   -4.1
