          16
 frame:         6131
N     1.1   -0.2   -0.2
C     2.5   -0.1   -0.0
C     3.3   -0.8   -1.2
O     2.5   -1.4   -2.2
C     3.3    0.7   -1.0
C     4.5    1.5   -0.5
C     5.7    1.0   -0.4
H     0.6    0.7    0.0
H     0.6   -0.9    0.4
H     2.9   -0.2    1.0
H     4.2   -1.4   -0.9
H     1.6   -1.1   -2.0
H     2.7    1.2   -1.8
H     4.3    2.5   -0.2
H     6.0    0.0   -0.7
H     6.5    1.7   -0.0
