          14
 frame:          668
C     1.0    0.0   -0.1
C     2.5   -0.0   -0.0
C     3.3   -0.7   -1.1
C     3.3    0.8   -1.1
C     4.5    1.5   -0.6
O     4.9    2.6   -1.0
H     0.6    0.9    0.4
H     0.6   -0.8    0.5
H     0.6    0.0   -1.1
H     3.0   -0.0    1.0
H     2.8   -1.2   -1.9
H     4.2   -1.2   -0.8
H     2.8    1.3   -1.8
H     5.1    0.9    0.2
