          12
 frame:          207
O     0.9    0.0    0.1
C     2.3   -0.0    0.0
C     3.0    1.0    0.9
N     4.0   -0.0    1.4
C     3.1   -1.1    0.8
H     0.6   -0.6   -0.6
H     2.7    0.0   -1.0
H     2.4    1.3    1.7
H     3.5    1.9    0.4
H     4.9    0.1    0.8
H     3.6   -1.9    0.3
H     2.5   -1.5    1.7
