          18
 frame:         4980
C     1.9   -0.6   -1.3
C     2.4   -0.0   -0.0
C     3.2    1.3   -0.1
N     4.5    1.0   -0.8
C     2.3    2.5   -0.5
O     2.3    3.0    0.9
C     3.4    2.0    1.2
H     1.3   -1.5   -1.2
H     2.8   -1.0   -1.9
H     1.4    0.1   -2.0
H     3.0   -0.7    0.6
H     1.5    0.2    0.6
H     5.0    1.9   -1.0
H     4.3    0.6   -1.8
H     1.3    2.3   -0.9
H     2.9    3.2   -1.2
H     4.3    2.5    1.3
H     3.1    1.5    2.1
