          20
 frame:         2255
C     0.8    0.2   -1.1
C     2.2    0.6   -1.2
C     2.8    1.4   -0.3
C     4.3    1.8   -0.3
N     4.5    3.2   -0.3
C     5.9    3.6   -0.0
C     4.0    3.9   -1.5
H     0.2    0.5   -2.0
H     0.3    0.6   -0.2
H     0.7   -0.9   -1.1
H     2.8    0.2   -2.0
H     2.3    1.8    0.6
H     4.8    1.3   -1.2
H     4.8    1.4    0.6
H     6.2    3.1    0.9
H     6.0    4.7    0.1
H     6.6    3.2   -0.8
H     2.9    3.6   -1.6
H     4.6    3.6   -2.4
H     4.1    5.0   -1.4
