          17
 frame:         1909
C     1.0   -0.1    0.1
C     2.5   -0.0   -0.0
N     3.1   -1.2   -0.8
C     3.4   -0.6   -2.1
N     3.5    0.7   -2.2
C     3.1    1.2   -0.8
C     4.4    1.8   -0.2
H     0.7    0.8    0.6
H     0.7   -1.0    0.5
H     0.6    0.0   -1.0
H     3.0   -0.1    1.0
H     2.6   -2.0   -0.8
H     3.6   -1.3   -2.9
H     2.4    2.0   -0.9
H     5.2    1.0   -0.0
H     4.1    2.2    0.8
H     4.8    2.6   -0.8
