          16
 frame:         4709
C     1.1    0.0    0.3
C     2.5   -0.0   -0.1
C     2.7   -0.0   -1.6
N     3.4    1.0    0.6
C     4.0   -0.0    1.4
C     3.3   -1.1    0.6
O     3.4   -2.3    0.6
H     0.9   -0.0    1.4
H     0.5   -0.8   -0.1
H     0.6    0.9   -0.1
H     3.8   -0.0   -1.9
H     2.2    0.8   -2.1
H     2.2   -0.9   -2.1
H     2.8    1.7    1.1
H     5.1   -0.0    1.4
H     3.7   -0.0    2.5
