          13
 frame:         2305
C     1.0    0.0    0.1
C     2.5   -0.0    0.0
C     3.0   -0.8   -1.2
C     4.4   -1.0   -1.2
N     5.6   -1.2   -1.2
C     3.0    1.4    0.0
N     3.4    2.5    0.1
H     0.6    0.6    1.0
H     0.6   -1.0    0.1
H     0.5    0.5   -0.8
H     2.9   -0.5    0.9
H     2.7   -0.2   -2.2
H     2.5   -1.8   -1.3
