          16
 frame:         4570
C     0.6    0.4   -0.8
C     0.1    1.3    0.2
N     0.2   -0.1    0.5
C     1.2   -0.5    1.4
C     0.8   -0.7    2.9
O     1.4   -2.0    2.9
C     1.6   -2.0    1.4
H    -0.0    0.1   -1.7
H     1.7    0.4   -1.0
H    -0.9    1.7    0.1
H     0.8    2.0    0.7
H     2.1    0.1    1.3
H    -0.3   -0.7    3.0
H     1.3   -0.1    3.6
H     2.6   -2.3    1.1
H     0.8   -2.6    0.9
