          15
 frame:         5118
C     1.0    0.1    0.1
C     2.4   -0.5    0.0
C     2.7   -1.8    0.2
C     3.4    0.5   -0.4
O     3.1    1.4   -1.2
N     4.7    0.3    0.1
N     5.7    1.3   -0.1
H     0.9    0.8    0.9
H     0.2   -0.7    0.3
H     0.7    0.6   -0.8
H     1.9   -2.5    0.5
H     3.7   -2.1    0.1
H     4.7   -0.2    1.0
H     5.2    2.1   -0.4
H     6.2    1.0   -0.9
