          13
 frame:         4964
C     0.9   -0.2   -0.1
C     2.5    0.1    0.1
C     2.9    1.5    0.1
C     3.4    2.3    1.0
O     3.6    3.5    0.5
N     3.1    3.4   -0.9
N     2.8    2.2   -1.1
H     0.7   -1.2   -0.1
H     0.6    0.2   -1.1
H     0.4    0.3    0.7
H     3.0   -0.5   -0.7
H     2.8   -0.4    1.1
H     3.6    2.2    2.1
