          18
 frame:         4656
C     1.1   -0.1    0.2
C     2.5    0.1   -0.1
C     3.2    1.2    0.8
C     4.5    0.7    1.2
N     5.5    1.0    0.2
C     4.2   -0.8    1.3
O     3.3   -1.1    0.2
H     0.7   -1.0   -0.4
H     0.5    0.8   -0.1
H     0.9   -0.3    1.2
H     2.7    0.3   -1.2
H     2.5    1.4    1.7
H     3.3    2.2    0.2
H     4.9    1.1    2.1
H     5.3    0.5   -0.7
H     6.5    0.6    0.5
H     5.0   -1.5    1.2
H     3.7   -1.0    2.3
