          16
 frame:         6136
N     1.1   -0.2   -0.2
C     2.5   -0.1   -0.0
C     3.3   -0.7   -1.2
O     2.5   -1.2   -2.2
C     3.2    0.8   -1.0
C     4.5    1.6   -0.6
O     5.3    2.0   -1.7
H     0.6    0.7    0.1
H     0.7   -0.9    0.4
H     3.0   -0.2    0.9
H     4.2   -1.2   -1.1
H     1.6   -1.1   -2.0
H     2.6    1.4   -1.7
H     5.0    1.0    0.2
H     4.2    2.5   -0.1
H     5.4    1.2   -2.2
