          16
 frame:         4803
C     0.8   -0.0   -0.4
C     2.2    0.5    0.0
N     3.4   -0.3    0.0
C     3.3    0.8   -1.0
C     4.2    2.0   -0.8
C     4.9    2.2    0.5
O     4.4    2.7   -1.8
H     0.2    0.8   -0.7
H     0.4   -0.6    0.3
H     1.0   -0.6   -1.4
H     2.1    1.2    0.9
H     3.2   -1.2   -0.5
H     3.0    0.6   -2.0
H     4.1    2.6    1.3
H     5.7    2.9    0.4
H     5.3    1.2    0.9
