          14
 frame:         5092
C     1.1   -0.0    0.2
C     2.6   -0.0   -0.1
C     3.0   -0.8   -1.4
C     3.1    1.4   -0.2
O     3.6    2.0   -1.1
C     2.9    2.2    1.1
N     2.7    2.8    2.1
H     0.8    0.5    1.1
H     0.7   -1.1    0.3
H     0.5    0.4   -0.7
H     3.1   -0.4    0.8
H     2.5   -0.4   -2.2
H     2.7   -1.8   -1.2
H     4.1   -0.8   -1.5
