          21
 frame:         1210
C     1.0    0.2    0.8
C     2.5    0.0    0.5
C     3.3    1.4    0.6
C     4.8    1.2    0.3
C     5.7    2.4    0.4
C     6.8    1.4    0.9
C     5.7    0.4    1.2
H     0.5   -0.7    0.8
H     0.5    0.9    0.2
H     0.9    0.6    1.9
H     2.6   -0.4   -0.5
H     2.9   -0.7    1.2
H     3.2    1.8    1.6
H     2.8    2.1   -0.1
H     4.9    0.8   -0.8
H     5.4    3.0    1.2
H     6.0    3.0   -0.5
H     7.5    1.1    0.1
H     7.5    1.7    1.8
H     5.9   -0.7    1.0
H     5.3    0.5    2.3
