          13
 frame:         6128
N     0.9    0.0   -0.2
C     2.3   -0.0   -0.1
C     3.1    1.1   -0.0
N     4.5    0.6    0.0
C     4.4   -0.8    0.0
O     5.6   -1.4    0.1
C     3.1   -1.2   -0.1
H     0.5    0.9    0.0
H     0.5   -0.7    0.3
H     3.0    2.2   -0.0
H     5.3    1.1    0.1
H     5.5   -2.4    0.0
H     2.8   -2.2   -0.1
