          17
 frame:         3320
C     1.0   -0.0    0.1
C     2.5   -0.1   -0.0
C     3.2   -0.7   -1.2
O     2.4   -1.2   -2.2
C     3.2    0.9   -1.0
C     4.5    1.6   -0.6
O     5.3    1.9   -1.8
H     0.7    0.8    0.7
H     0.6   -1.0    0.6
H     0.5    0.0   -0.9
H     3.0   -0.2    0.9
H     4.1   -1.2   -1.0
H     2.8   -1.0   -3.1
H     2.5    1.4   -1.7
H     5.1    1.0    0.1
H     4.3    2.5   -0.2
H     5.5    1.1   -2.2
