          13
 frame:          603
N     0.9   -0.0    0.1
C     2.1   -0.0    0.0
C     3.5    0.0    0.0
C     4.3    1.1    0.9
C     5.3   -0.0    1.3
C     4.3   -1.1    0.8
H     3.9    0.0   -1.0
H     3.6    1.4    1.8
H     4.6    2.0    0.4
H     6.2    0.0    0.6
H     5.7   -0.0    2.3
H     4.7   -2.0    0.3
H     3.7   -1.4    1.7
