          17
 frame:         3828
C     0.3    0.5    0.1
C     1.5    0.2    0.9
C     2.8    0.9    0.5
C     2.7    2.4    0.6
O     3.9    0.5    1.2
C     4.6   -0.6    0.8
O     4.4   -1.2   -0.3
H    -0.6   -0.1    0.4
H     0.4    0.3   -1.0
H    -0.0    1.5    0.2
H     1.7   -0.9    0.8
H     1.4    0.4    2.0
H     3.0    0.7   -0.6
H     2.5    2.7    1.7
H     1.9    2.9    0.0
H     3.6    2.9    0.3
H     5.4   -0.8    1.5
