          17
 frame:         5355
C     0.7   -0.5   -0.3
C     2.2   -0.1   -0.1
N     3.2   -1.0   -0.7
C     2.5    1.3   -0.5
C     1.8    2.4    0.3
N     1.0    3.2   -0.3
O     0.4    4.1    0.6
H     0.1    0.2    0.2
H     0.5   -1.5    0.1
H     0.5   -0.5   -1.4
H     2.4   -0.2    1.0
H     3.0   -1.0   -1.7
H     3.0   -2.0   -0.4
H     2.3    1.4   -1.6
H     3.6    1.5   -0.4
H     1.9    2.4    1.4
H    -0.2    4.6    0.1
