          17
 frame:         3501
C     2.3   -0.3   -1.6
C     2.5    0.1   -0.1
C     3.2    1.5   -0.0
C     2.4    2.7   -0.5
O     3.0    3.8    0.2
C     3.4    3.2    1.5
O     3.3    1.8    1.4
H     1.8   -1.3   -1.6
H     3.3   -0.4   -2.1
H     1.6    0.3   -2.1
H     3.0   -0.6    0.4
H     1.5    0.2    0.4
H     4.2    1.4   -0.5
H     1.3    2.6   -0.3
H     2.6    2.9   -1.6
H     4.4    3.5    1.6
H     2.8    3.5    2.3
