          19
 frame:         3900
C     1.7   -0.2    2.6
C     0.9   -0.0    1.4
C     1.8    0.2    0.2
O     1.0    0.4   -1.0
C     1.7    0.6   -2.2
C     3.0    0.6   -2.4
C     3.6    0.9   -3.8
H     1.0   -0.4    3.5
H     2.3    0.6    2.9
H     2.3   -1.1    2.6
H     0.2    0.9    1.4
H     0.2   -0.9    1.1
H     2.5   -0.7    0.0
H     2.5    1.1    0.3
H     1.0    0.8   -3.0
H     3.7    0.5   -1.6
H     2.8    1.0   -4.5
H     4.2    0.0   -4.1
H     4.2    1.8   -3.8
