          14
 frame:          934
O     0.8    0.1   -0.1
C     2.2   -0.1   -0.2
C     2.9    1.2    0.1
C     4.5    1.1    0.0
C     5.0    0.7   -1.3
C     5.4    0.4   -2.4
H     0.4   -0.8   -0.3
H     2.5   -0.5   -1.2
H     2.6   -0.9    0.6
H     2.6    1.6    1.1
H     2.6    1.9   -0.7
H     4.8    0.4    0.8
H     4.9    2.1    0.3
H     5.8    0.2   -3.4
