          19
 frame:         4163
C     1.4   -0.1   -0.7
O     2.5    0.1    0.2
C     3.1    1.3    0.1
C     2.2    2.5    0.1
C     4.5    1.3    0.0
C     5.2    0.0    0.0
C     5.3    2.6    0.1
H     1.0   -1.1   -0.6
H     1.6    0.0   -1.8
H     0.5    0.6   -0.5
H     1.5    2.5    0.9
H     1.6    2.6   -0.8
H     2.8    3.5    0.2
H     4.6   -0.8   -0.0
H     5.8   -0.1    1.0
H     6.0    0.0   -0.8
H     4.7    3.5    0.1
H     5.9    2.6   -0.8
H     6.0    2.6    0.9
