          14
 frame:         5761
C     1.0   -0.0   -0.1
N     2.5    0.2   -0.0
C     3.4   -0.9   -0.1
C     3.5   -1.6   -1.4
O     2.9   -1.2   -2.4
C     3.0    1.5    0.2
O     4.2    1.8    0.3
H     0.5    0.9   -0.0
H     0.7   -0.7    0.7
H     0.8   -0.4   -1.1
H     3.1   -1.7    0.7
H     4.4   -0.5    0.2
H     4.1   -2.5   -1.4
H     2.2    2.2    0.2
