          15
 frame:         3943
C     2.4   -1.4    1.3
C     2.5   -1.1   -0.2
C     2.6    0.4   -0.4
O     2.6    1.3    0.4
O     2.8    0.7   -1.8
C     2.9    2.0   -2.2
C     3.0    2.3   -3.5
H     2.3   -2.5    1.4
H     1.5   -1.0    1.7
H     3.2   -1.1    1.9
H     1.7   -1.5   -0.8
H     3.4   -1.5   -0.6
H     2.9    2.7   -1.3
H     3.0    1.5   -4.2
H     3.1    3.3   -3.8
