          13
 frame:         3265
C     0.9   -0.0   -0.0
C     2.4   -0.0   -0.0
C     3.2    1.1   -0.0
O     2.9    2.4   -0.0
O     4.5    0.8   -0.0
C     4.5   -0.6    0.0
C     3.3   -1.1    0.0
H     0.5    1.0    0.0
H     0.5   -0.6    0.9
H     0.5   -0.5   -0.9
H     3.7    2.9   -0.0
H     5.5   -1.1    0.0
H     3.0   -2.2    0.0
