          18
 frame:         6187
N     2.1   -0.3   -1.5
C     2.4    0.1   -0.1
C     3.1    1.4   -0.0
C     2.3    2.6   -0.6
C     3.0    3.8    0.2
O     3.3    3.3    1.5
C     3.4    1.8    1.4
H     1.6   -1.2   -1.5
H     3.0   -0.5   -2.0
H     3.0   -0.7    0.5
H     1.4    0.2    0.4
H     4.0    1.3   -0.6
H     1.3    2.5   -0.2
H     2.3    2.7   -1.6
H     3.9    4.1   -0.4
H     2.4    4.7    0.3
H     4.5    1.5    1.7
H     2.7    1.4    2.1
