          19
 frame:         2650
C     0.8    1.4    0.9
N     1.7    1.1   -0.2
C     3.1    1.5    0.1
C     3.8    0.9    1.3
N     3.8   -0.5    1.3
C     4.0    1.7   -1.2
C     3.5    2.9   -0.3
H     1.0    1.0    1.9
H    -0.2    1.1    0.6
H     0.8    2.5    1.0
H     1.7    0.1   -0.4
H     3.3    1.4    2.2
H     4.9    1.3    1.3
H     2.9   -0.9    1.6
H     4.5   -0.9    2.0
H     3.5    1.5   -2.1
H     5.0    1.4   -1.1
H     4.2    3.5    0.2
H     2.7    3.5   -0.8
