          14
 frame:         4606
C     0.7   -1.2    0.5
O    -0.6   -1.5   -0.1
C    -1.5   -0.6   -0.1
C    -1.3    0.8    0.1
C     0.1    1.3    0.2
N     1.1    0.9   -0.9
C     1.1    0.2    0.4
H     1.4   -1.9   -0.0
H     0.7   -1.5    1.6
H    -2.5   -1.0   -0.2
H    -2.1    1.4   -0.0
H     0.2    2.2    0.7
H     1.8    1.6   -1.0
H     2.0    0.5    1.1
