          13
 frame:          351
C     1.0    0.0   -0.1
C     2.5   -0.1   -0.0
C     3.3   -0.7   -1.1
C     3.3    0.8   -1.0
C     4.5    1.5   -0.6
N     5.5    2.0   -0.2
H     0.6    0.9    0.5
H     0.6   -0.9    0.4
H     0.7    0.1   -1.1
H     3.0   -0.1    1.0
H     2.8   -1.1   -1.9
H     4.2   -1.2   -0.8
H     2.8    1.4   -1.8
