          13
 frame:         4442
O     0.9    0.2   -0.6
C     2.0    0.2   -0.0
C     2.9    1.3   -0.0
C     3.7    2.3    0.0
C     4.6    3.4    0.0
C     4.7    4.3   -1.2
C     4.1    4.8    0.1
H     2.4   -0.7    0.5
H     5.6    3.2    0.5
H     4.0    4.0   -2.0
H     5.7    4.6   -1.5
H     4.6    5.5    0.7
H     3.0    4.9    0.1
