          12
 frame:          691
C     0.9   -0.0    0.0
C     2.4    0.1    0.0
C     3.1    1.1    0.9
O     3.9   -0.1    1.6
C     3.2   -1.0    0.8
O     3.3   -2.2    0.8
H     0.6   -0.9   -0.5
H     0.5    0.9   -0.5
H     0.5   -0.1    1.1
H     2.8    0.1   -1.0
H     2.5    1.6    1.7
H     3.9    1.7    0.5
