          13
 frame:         6992
C     2.7   -1.2    0.4
C     2.2    0.1    0.2
C     3.0    1.3    0.1
C     2.4    2.5   -0.2
S     3.6    3.8   -0.2
C     4.9    2.7    0.0
C     4.4    1.4    0.2
H     2.0   -2.0    0.4
H     3.7   -1.4    0.5
H     1.1    0.2    0.1
H     1.4    2.8   -0.3
H     5.9    3.0    0.1
H     5.1    0.6    0.3
