          15
 frame:         4029
C     1.0    0.1   -0.2
C     2.5    0.2   -0.2
O     3.2   -0.8   -0.5
C     3.2    1.5    0.1
C     2.6    2.6    0.3
C     4.7    1.4    0.2
O     5.3    0.9   -1.0
H     0.6    0.8   -1.0
H     0.6    0.4    0.8
H     0.7   -0.9   -0.4
H     1.5    2.7    0.2
H     3.1    3.5    0.5
H     5.0    0.8    1.1
H     5.2    2.4    0.4
H     5.0   -0.0   -1.1
