          17
 frame:         4015
C     2.7    0.9   -3.3
C     3.0    1.4   -1.9
O     4.1    0.8   -1.3
C     4.4    1.3    0.0
C     5.5    0.4    0.6
C     4.8    2.7    0.0
C     5.2    3.9    0.1
H     1.8    1.3   -3.7
H     2.5   -0.2   -3.2
H     3.6    1.0   -3.9
H     2.1    1.3   -1.2
H     3.1    2.5   -1.9
H     3.5    1.2    0.6
H     6.4    0.4   -0.1
H     5.2   -0.7    0.5
H     5.8    0.7    1.6
H     5.5    4.9    0.1
