          15
 frame:         1108
N     1.0   -0.1   -0.6
C     2.4    0.0   -0.2
C     3.2   -0.8   -1.2
O     2.9   -0.6   -2.6
C     2.8    1.5   -0.4
C     3.2    2.2    0.7
H     0.4    0.6   -0.1
H     0.7   -1.1   -0.3
H     2.7   -0.3    0.8
H     3.1   -1.9   -1.0
H     4.3   -0.7   -1.1
H     1.9   -0.4   -2.5
H     2.7    1.9   -1.4
H     3.3    1.8    1.7
H     3.5    3.3    0.5
