          16
 frame:          866
C     3.5   -0.8    1.2
O     4.5    0.2    0.9
C     4.0    1.2    0.0
C     5.1    2.2   -0.2
C     6.3    1.7   -0.9
C     6.8    2.1   -2.1
H     4.0   -1.5    1.9
H     3.3   -1.3    0.3
H     2.6   -0.3    1.6
H     3.1    1.7    0.5
H     3.7    0.7   -0.9
H     5.4    2.7    0.8
H     4.7    3.1   -0.8
H     6.8    0.8   -0.5
H     6.3    3.0   -2.6
H     7.7    1.7   -2.6
