          19
 frame:         1509
C     0.9   -0.0    0.0
C     2.4   -0.0    0.0
C     3.0    1.4    0.0
C     4.5    1.4   -0.0
C     5.7    1.4   -0.0
C     7.2    1.5   -0.0
C     7.7    2.9   -0.0
H     0.5   -1.0    0.0
H     0.5    0.5   -0.9
H     0.5    0.5    0.9
H     2.8   -0.6   -0.8
H     2.8   -0.5    0.9
H     2.6    2.0    0.9
H     2.6    1.9   -0.9
H     7.5    0.9   -0.9
H     7.5    0.9    0.9
H     7.4    3.4   -0.9
H     8.8    2.9   -0.0
H     7.4    3.4    0.9
