          20
 frame:         2137
C     1.1   -0.3    0.5
C     2.4    0.1   -0.2
C     2.9   -1.1   -1.1
C     2.3    1.3   -1.1
C     1.1    1.9   -1.4
C     3.6    1.9   -1.7
N     4.6    2.2   -0.6
H     0.8    0.5    1.1
H     1.3   -1.1    1.2
H     0.3   -0.6   -0.2
H     3.2    0.3    0.5
H     2.2   -1.4   -1.9
H     3.0   -2.0   -0.4
H     3.9   -0.9   -1.5
H     0.2    1.5   -1.0
H     1.1    2.8   -2.0
H     3.3    2.7   -2.3
H     4.0    1.1   -2.4
H     4.2    3.0   -0.1
H     5.5    2.4   -1.0
