          16
 frame:         6081
N     1.2    0.0    0.5
C     2.5   -0.1   -0.1
C     2.6   -1.3   -1.1
C     3.6   -0.8   -2.1
C     3.7    0.6   -2.1
C     2.9    1.1   -1.0
O     3.5    2.2   -0.2
H     1.2    0.9    1.1
H     1.0   -0.8    1.1
H     3.3   -0.2    0.6
H     1.6   -1.6   -1.5
H     3.0   -2.2   -0.6
H     4.0   -1.4   -2.9
H     4.2    1.2   -2.8
H     2.0    1.6   -1.3
H     4.4    1.8    0.0
