          14
 frame:         2698
C     1.0   -0.0   -0.1
N     2.5   -0.0    0.1
C     3.0    1.4    0.0
C     4.5    1.4    0.0
C     5.7    1.4    0.0
C     7.0    1.4   -0.0
C     8.3    1.4   -0.0
H     0.6   -1.0   -0.1
H     0.6    0.5   -1.0
H     0.5    0.5    0.8
H     2.9   -0.6   -0.6
H     2.6    1.9    0.9
H     2.6    1.9   -0.9
H     9.3    1.4   -0.1
