          15
 frame:         1618
C     1.1    1.2   -0.2
N    -0.2    1.4    0.6
N    -1.4    0.9    0.2
C    -1.5   -0.4   -0.0
C    -0.5   -1.5    0.1
C     1.0   -1.4    0.1
C     1.6   -0.2   -0.0
H     1.8    1.9    0.1
H     0.9    1.3   -1.3
H    -0.3    2.5    0.6
H    -2.5   -0.7   -0.2
H    -0.8   -2.3   -0.7
H    -0.8   -2.1    1.1
H     1.6   -2.3    0.2
H     2.8   -0.2   -0.0
