          17
 frame:         1267
C     0.9    0.0    0.1
C     2.4    0.0    0.1
C     3.0    1.2   -0.7
C     3.8    0.7   -1.7
C     3.8   -0.7   -1.6
C     3.0   -1.2   -0.7
C     2.7   -2.6   -0.2
H     0.5    0.9    0.6
H     0.5   -0.8    0.7
H     0.5    0.0   -0.9
H     2.8    0.1    1.1
H     2.8    2.2   -0.5
H     4.4    1.3   -2.4
H     4.4   -1.4   -2.3
H     3.3   -3.3   -0.9
H     1.6   -2.8   -0.3
H     3.0   -2.8    0.8
