          18
 frame:         5639
C     2.1   -0.7   -1.4
N     1.9    0.3   -0.4
C     3.0    1.1    0.1
C     3.8    0.3    1.2
C     3.8    1.9   -0.9
C     2.9    2.5    0.1
O     3.4    3.2    1.3
H     2.8   -0.4   -2.2
H     1.2   -1.2   -1.7
H     2.7   -1.6   -0.8
H     1.2    1.0   -0.8
H     4.6    1.0    1.6
H     4.2   -0.6    0.8
H     3.1    0.1    2.0
H     3.5    2.0   -1.9
H     4.9    2.0   -0.7
H     1.9    3.0   -0.2
H     3.8    4.0    1.0
