          19
 frame:         1256
C     1.0   -0.4    0.3
C     2.4    0.1    0.1
C     3.0    1.3    0.9
C     4.3    0.6    0.9
C     3.6   -0.7    0.6
C     4.3   -1.7   -0.3
C     4.4   -3.0   -0.1
H     0.8   -1.3   -0.2
H     0.2    0.3    0.0
H     0.8   -0.6    1.4
H     2.6    0.3   -1.0
H     2.5    1.3    1.9
H     2.9    2.3    0.5
H     5.0    0.9    0.1
H     4.9    0.7    1.9
H     3.3   -1.2    1.6
H     4.6   -1.3   -1.3
H     4.1   -3.5    0.8
H     4.9   -3.7   -0.8
