          20
 frame:         5337
C     1.3   -0.4    0.4
C     2.8   -0.2    0.6
N     3.7   -1.2   -0.0
C     3.2    1.2    0.1
C     2.4    2.4    0.8
C     4.7    1.5    0.5
O     5.7    0.7   -0.2
H     0.7    0.2    0.9
H     1.1   -1.5    0.7
H     1.1   -0.3   -0.7
H     3.0   -0.2    1.7
H     3.4   -1.3   -1.0
H     3.5   -2.1    0.4
H     3.2    1.3   -1.0
H     2.4    2.3    1.9
H     1.3    2.3    0.4
H     2.8    3.4    0.5
H     4.9    1.4    1.6
H     5.0    2.6    0.2
H     5.3   -0.2   -0.1
