          17
 frame:         5296
C     3.8   -3.0    2.1
C     2.3   -2.6    2.2
C     1.8   -2.2    0.8
O     0.5   -1.8    0.9
N    -0.1   -1.5   -0.4
C    -1.2   -2.3   -0.7
N    -1.6   -3.4   -0.2
H     4.2   -3.3    3.1
H     4.5   -2.2    1.8
H     3.9   -3.9    1.5
H     2.2   -1.7    2.8
H     1.7   -3.4    2.6
H     1.9   -3.0    0.1
H     2.4   -1.4    0.3
H    -0.2   -0.5   -0.4
H    -1.7   -1.8   -1.6
H    -1.0   -3.6    0.6
