          19
 frame:         3775
C     1.4    0.2   -1.9
C     0.8    0.5   -0.5
C     1.7    1.3    0.4
C     2.0    2.7   -0.1
O     1.0    1.3    1.7
C     1.8    1.5    2.8
C     3.1    1.7    3.0
H     0.8   -0.5   -2.5
H     2.4   -0.3   -1.8
H     1.6    1.1   -2.5
H     0.6   -0.5    0.0
H    -0.1    1.0   -0.6
H     2.7    0.7    0.6
H     1.1    3.2   -0.3
H     2.6    2.7   -1.0
H     2.6    3.3    0.7
H     1.1    1.5    3.7
H     3.8    1.7    2.1
H     3.5    1.8    4.0
