          17
 frame:         3814
C     1.0   -0.2    0.3
C     2.4   -0.1   -0.2
C     2.7   -1.2   -1.3
C     2.8    1.3   -0.7
O     4.1    1.5   -0.9
C     2.0    1.7   -2.0
O     2.5    2.1   -3.0
H     0.8    0.6    1.1
H     0.8   -1.2    0.8
H     0.2   -0.1   -0.5
H     3.1   -0.3    0.6
H     2.0   -1.1   -2.1
H     2.6   -2.2   -0.9
H     3.8   -1.1   -1.7
H     2.4    2.0    0.1
H     4.2    1.9   -1.8
H     0.9    1.6   -1.9
