          15
 frame:         1770
C     1.0   -0.1   -0.0
C     2.5    0.0   -0.1
C     3.0    1.3    0.6
C     3.5    1.2    1.8
N     3.5    0.0    2.5
C     3.4   -1.1    1.8
N     3.0   -1.2    0.6
H     0.6   -1.0   -0.5
H     0.5    0.8   -0.6
H     0.6   -0.0    1.0
H     2.8   -0.0   -1.1
H     3.1    2.2   -0.0
H     3.9    2.1    2.4
H     4.0   -0.0    3.4
H     3.8   -2.0    2.3
