          17
 frame:         3769
C     2.4   -1.8    0.6
C     3.4   -0.9   -0.2
C     3.0    0.6   -0.1
C     3.8    1.5    0.4
O     3.4    2.8    0.4
C     4.3    3.7    0.9
C     4.0    5.0    1.1
H     2.7   -2.9    0.4
H     1.4   -1.7    0.2
H     2.4   -1.6    1.6
H     3.3   -1.2   -1.3
H     4.4   -1.0    0.1
H     2.0    0.8   -0.5
H     4.8    1.3    0.7
H     5.2    3.3    1.2
H     3.0    5.4    0.8
H     4.7    5.7    1.5
