          20
 frame:         2343
C     1.4   -0.8    1.6
C     2.4   -0.7    0.5
C     3.0    0.7    0.3
N     4.0    0.8   -0.8
C     4.5    2.1   -1.0
C     5.8    2.5   -0.2
C     5.9    2.2   -1.6
H     1.0   -1.8    1.7
H     0.6   -0.1    1.4
H     1.9   -0.5    2.5
H     2.0   -1.0   -0.5
H     3.3   -1.4    0.6
H     3.5    1.0    1.2
H     2.2    1.4    0.1
H     3.6    0.5   -1.6
H     3.8    2.9   -1.1
H     6.2    1.7    0.5
H     5.9    3.5    0.2
H     6.0    3.1   -2.3
H     6.3    1.3   -2.0
