          19
 frame:         2625
C     1.8   -0.6   -0.8
N     1.8    0.6    0.1
C     3.1    1.2    0.1
C     3.2    2.4   -0.9
C     3.1    2.7    0.5
C     4.2    3.2    1.3
N     4.3    4.7    1.2
H     0.8   -1.1   -0.7
H     2.6   -1.4   -0.6
H     1.9   -0.3   -1.8
H     1.6    0.3    1.0
H     4.0    0.7    0.3
H     2.4    2.6   -1.6
H     4.2    2.5   -1.4
H     2.1    3.1    0.8
H     5.2    2.7    1.0
H     4.1    3.0    2.4
H     4.5    4.9    0.2
H     5.1    5.0    1.7
