          19
 frame:         3846
C     1.0    0.1    0.1
C     2.5   -0.1   -0.2
C     2.8   -0.9   -1.4
O     3.1    1.2   -0.2
C     4.5    1.2   -0.1
C     5.3    1.3   -1.3
C     5.1    2.5   -0.4
H     0.8    0.7    1.0
H     0.5   -0.9    0.1
H     0.5    0.6   -0.8
H     2.9   -0.7    0.7
H     2.4   -0.4   -2.3
H     2.3   -1.9   -1.4
H     3.9   -1.1   -1.6
H     4.8    0.7    0.8
H     4.8    1.4   -2.3
H     6.3    0.8   -1.3
H     6.0    2.9    0.2
H     4.5    3.3   -0.8
