          17
 frame:         1582
C     0.6    0.4   -0.8
C     0.0    1.3    0.2
N     0.1   -0.1    0.5
C     1.2   -0.5    1.4
C     0.8   -0.7    2.9
N     1.5   -2.0    3.0
C     1.6   -2.0    1.4
H    -0.0    0.1   -1.7
H     1.7    0.4   -1.0
H    -1.0    1.7    0.1
H     0.7    2.0    0.7
H     2.1    0.1    1.3
H    -0.3   -0.8    3.0
H     1.1    0.1    3.6
H     2.4   -1.9    3.4
H     2.6   -2.3    1.0
H     0.8   -2.7    1.0
