          18
 frame:         5668
C     1.4    0.1   -0.8
N     2.8    0.3   -0.9
C     3.5    0.5    0.4
C     5.0    0.8    0.2
C     5.8   -0.1   -0.7
C     6.2    1.2   -1.4
O     5.2    2.0   -0.6
H     0.9    0.0   -1.8
H     0.8    0.8   -0.2
H     1.2   -0.9   -0.3
H     3.0    1.2   -1.5
H     3.4   -0.4    1.0
H     3.0    1.3    1.0
H     5.4    1.0    1.2
H     5.2   -0.8   -1.3
H     6.6   -0.6   -0.2
H     7.2    1.6   -1.2
H     6.0    1.3   -2.5
