          17
 frame:         1510
C     0.9   -0.0    0.0
C     2.4   -0.0    0.0
C     3.0    1.4    0.0
C     4.5    1.5    0.0
C     5.7    1.5    0.0
C     7.1    1.5    0.0
C     7.9    2.6   -0.0
H     0.5   -1.1    0.0
H     0.5    0.5   -0.9
H     0.5    0.5    0.9
H     2.8   -0.6   -0.9
H     2.8   -0.6    0.9
H     2.6    2.0    0.9
H     2.6    1.9   -0.9
H     7.6    0.5   -0.0
H     7.4    3.6   -0.0
H     9.0    2.5   -0.0
