          17
 frame:         4255
C     2.5    0.9   -2.3
O     2.3    2.0   -1.4
C     2.8    1.7   -0.1
O     4.2    1.5    0.0
C     4.9    2.7   -0.2
C     6.4    2.4    0.1
C     7.4    2.7   -0.7
H     2.1    1.2   -3.3
H     1.9   -0.0   -1.9
H     3.5    0.6   -2.4
H     2.3    0.7    0.3
H     2.5    2.5    0.5
H     4.5    3.5    0.5
H     4.8    3.0   -1.2
H     6.6    1.9    1.1
H     7.2    3.1   -1.7
H     8.4    2.5   -0.4
