          15
 frame:         6478
O     0.8    0.1   -0.3
C     2.1   -0.2    0.0
C     3.0   -0.9   -1.0
C     3.2    0.6   -0.7
N     4.4    0.9    0.0
C     4.5    2.0    0.8
N     3.6    2.9    1.1
H     0.5    0.8    0.2
H     2.3   -0.4    1.1
H     2.5   -1.1   -1.9
H     3.7   -1.6   -0.7
H     2.9    1.3   -1.4
H     5.3    0.5   -0.3
H     5.6    2.2    1.2
H     2.7    2.6    0.7
