          18
 frame:         5747
C     1.2    0.0    0.7
N     2.7    0.1    0.4
C     3.1    1.3   -0.2
C     4.7    1.3   -0.2
O     5.1    1.1    1.1
C     5.2    0.4   -1.2
C     6.0   -0.7   -0.9
H     1.0   -1.0    1.1
H     0.6    0.2   -0.2
H     1.0    0.8    1.4
H     2.9   -0.7   -0.2
H     2.8    2.1    0.4
H     2.7    1.4   -1.2
H     5.0    2.3   -0.5
H     4.5    0.5    1.5
H     4.9    0.6   -2.3
H     6.3   -0.9    0.1
H     6.4   -1.3   -1.7
