          17
 frame:         4058
C     0.9    2.1    1.1
C     2.4    2.3    1.2
O     3.1    1.7    0.1
C     4.5    1.8    0.2
C     5.0    3.1   -0.4
C     4.2    3.9   -1.4
O     6.2    3.5   -0.1
H     0.4    2.6    1.9
H     0.6    1.1    1.1
H     0.6    2.6    0.2
H     2.8    1.9    2.2
H     2.7    3.4    1.3
H     4.9    1.0   -0.5
H     4.9    1.7    1.2
H     3.9    3.2   -2.2
H     4.7    4.7   -1.8
H     3.2    4.2   -0.9
