          14
 frame:         1942
C     3.0   -1.2    0.4
C     2.4    0.0    0.2
C     3.0    1.3    0.1
C     2.5    2.5   -0.1
C     3.5    3.5   -0.1
C     4.7    2.8    0.1
N     4.4    1.5    0.2
H     2.4   -2.1    0.4
H     4.0   -1.3    0.5
H     1.3    0.1    0.1
H     1.4    2.8   -0.2
H     3.4    4.6   -0.3
H     5.8    3.2    0.1
H     5.1    0.8    0.4
