          17
 frame:         1659
C     0.4    0.2    0.1
C     1.8   -0.1    0.1
C     2.5   -0.7   -1.0
C     2.8    0.7   -0.7
N     4.1    1.0   -0.1
N     4.2    2.0    0.7
C     5.3    2.6    0.9
H     0.1    1.0    0.8
H    -0.2   -0.7    0.4
H     0.1    0.5   -0.9
H     2.2   -0.4    1.1
H     1.9   -0.9   -1.9
H     3.3   -1.5   -0.8
H     2.4    1.5   -1.3
H     4.9    0.9   -0.8
H     5.3    3.5    1.6
H     6.2    2.4    0.3
