          14
 frame:         2802
C     1.4   -0.4   -0.8
N     2.8   -0.3   -0.7
N     3.3    1.0   -0.5
C     4.5    1.2   -0.1
C     5.5    0.1    0.3
C     4.9    2.5    0.0
N     5.3    3.6    0.1
H     1.2   -1.4   -1.3
H     1.0    0.3   -1.6
H     0.8   -0.3    0.1
H     3.4   -1.0   -0.2
H     5.0   -0.5    1.1
H     6.4    0.5    0.6
H     5.7   -0.6   -0.6
