          13
 frame:         3975
C     0.9    2.2    0.0
C     2.2    2.3   -0.0
O     3.0    1.1    0.0
C     4.3    1.1   -0.0
C     5.0   -0.1   -0.0
C     5.0    2.4   -0.1
C     5.6    3.5   -0.2
H     0.3    3.1   -0.0
H     0.3    1.3    0.1
H     2.8    3.2   -0.1
H     4.5   -1.0    0.1
H     6.1   -0.1   -0.0
H     6.1    4.4   -0.3
