          14
 frame:         6229
N     3.0   -1.2   -0.4
C     2.4    0.0    0.2
C     3.4    1.1    0.3
O     3.7    1.9   -0.8
C     3.0    2.5    0.3
C     3.7    3.5    1.1
C     4.3    4.4    1.7
H     2.2   -1.9   -0.6
H     3.5   -1.6    0.3
H     1.9   -0.1    1.2
H     1.6    0.4   -0.5
H     4.3    0.8    0.9
H     1.9    2.8    0.1
H     4.8    5.1    2.3
