          19
 frame:         3276
C     1.0    0.0    0.2
C     2.5    0.0    0.0
C     3.0   -1.3   -0.6
C     2.7   -1.4   -2.1
O     3.3   -0.3   -2.8
C     2.7    0.9   -2.4
C     3.0    1.2   -0.9
H     0.6    1.0    0.6
H     0.6   -0.8    0.9
H     0.4   -0.1   -0.8
H     2.9    0.1    1.0
H     2.5   -2.2   -0.0
H     4.1   -1.4   -0.4
H     3.2   -2.4   -2.5
H     1.6   -1.5   -2.2
H     3.2    1.7   -3.0
H     1.6    0.9   -2.6
H     4.1    1.3   -0.8
H     2.5    2.1   -0.6
