          15
 frame:         2286
C     2.8   -1.7   -0.2
C     3.6   -0.7    0.2
C     3.4    0.7    0.0
C     4.3    1.7    0.5
N     4.1    3.0    0.3
C     4.9    4.1    0.7
N     6.1    4.0    1.3
H     3.1   -2.7   -0.0
H     1.9   -1.5   -0.7
H     4.6   -1.0    0.7
H     2.5    1.0   -0.5
H     5.2    1.4    0.9
H     3.2    3.3   -0.1
H     4.5    5.0    0.5
H     6.4    3.0    1.5
