          19
 frame:         3219
C     1.1   -0.1    0.2
C     2.6    0.1   -0.1
C     2.9    0.2   -1.6
C     3.2    1.2    0.8
C     4.5    0.6    1.3
C     4.2   -0.8    1.4
O     3.3   -1.1    0.3
H     0.9   -0.3    1.2
H     0.7   -1.0   -0.4
H     0.5    0.8   -0.1
H     4.0    0.4   -1.8
H     2.3    1.1   -2.0
H     2.6   -0.7   -2.1
H     2.5    1.4    1.6
H     3.3    2.1    0.2
H     5.3    0.7    0.5
H     4.9    1.1    2.2
H     5.0   -1.5    1.4
H     3.6   -1.0    2.4
