          19
 frame:         3471
C     1.9   -0.6   -1.2
C     2.4    0.1    0.0
C     3.4    1.2   -0.3
C     2.8    2.5   -0.8
C     3.4    3.1    0.5
C     4.5    4.2    0.4
O     3.9    1.8    0.9
H     1.1   -1.4   -1.0
H     2.6   -1.0   -1.9
H     1.3    0.2   -1.9
H     2.9   -0.7    0.6
H     1.6    0.5    0.6
H     4.2    0.8   -0.9
H     1.7    2.6   -0.9
H     3.3    3.0   -1.7
H     2.7    3.5    1.2
H     5.3    3.9   -0.3
H     5.0    4.3    1.4
H     4.1    5.1    0.1
