          14
 frame:         5035
C     1.0   -0.1    0.0
C     2.5   -0.0   -0.0
C     3.1    1.3    0.0
C     3.5    2.4    0.0
C     4.0    3.8    0.0
N     5.3    4.0   -0.0
O     3.2    4.8    0.0
H     0.6   -1.1    0.0
H     0.6    0.5   -0.9
H     0.6    0.5    0.9
H     2.9   -0.6   -0.9
H     2.9   -0.6    0.9
H     6.0    3.2   -0.0
H     5.7    4.9   -0.0
