          13
 frame:         1453
C     0.9   -0.0   -0.0
C     2.4   -0.0    0.0
C     3.6    0.0    0.0
C     5.0    0.0    0.0
C     6.2    0.1    0.0
C     7.6    0.1    0.0
C     8.4    1.1   -0.0
H     0.5    1.0    0.0
H     0.6   -0.6    0.9
H     0.6   -0.5   -0.9
H     8.1   -0.9   -0.0
H     8.0    2.1   -0.0
H     9.5    1.0   -0.0
