          17
 frame:         2834
N     1.1   -0.0    0.5
C     2.5   -0.0    0.1
C     2.8   -1.4   -0.6
C     2.5   -1.1   -2.1
C     3.6   -0.4   -2.9
N     2.4    0.3   -2.4
C     2.7    1.0   -1.1
H     0.8    0.9    0.8
H     1.0   -0.7    1.3
H     3.2    0.2    0.9
H     2.2   -2.2   -0.2
H     3.9   -1.6   -0.4
H     1.8   -1.8   -2.6
H     4.6   -0.3   -2.4
H     3.6   -0.5   -4.0
H     3.7    1.4   -1.1
H     2.0    1.9   -1.0
