          14
 frame:          377
C     1.0    0.1    0.0
C     2.5   -0.0   -0.0
C     3.1   -1.2   -0.9
N     3.4   -0.7   -2.2
C     3.4    0.6   -2.0
N     3.1    1.1   -0.8
H     0.7    1.0    0.6
H     0.6   -0.8    0.6
H     0.6    0.1   -1.0
H     3.0   -0.0    1.0
H     2.3   -2.0   -1.0
H     4.0   -1.6   -0.4
H     3.7    1.3   -2.8
H     2.7    2.0   -0.7
