          15
 frame:         1781
C     0.9    0.0   -0.1
C     2.4    0.0   -0.0
C     3.2    1.1   -0.1
N     4.5    0.7    0.0
N     5.6    1.6   -0.0
C     4.6   -0.7    0.1
C     3.3   -1.1    0.1
H     0.5    1.0   -0.2
H     0.5   -0.4    0.8
H     0.6   -0.6   -0.9
H     3.0    2.2   -0.2
H     6.2    1.5    0.8
H     6.2    1.3   -0.8
H     5.5   -1.2    0.2
H     3.0   -2.2    0.2
