          13
 frame:         1609
C     2.6   -0.0    0.7
N     1.6    0.3   -0.4
C     2.3    1.6   -0.6
C     2.5    2.8   -1.1
N     3.5    3.4   -0.3
C     3.9    2.5    0.7
C     3.2    1.4    0.5
H     3.2   -0.9    0.5
H     2.1   -0.2    1.7
H     1.6   -0.3   -1.2
H     2.0    3.4   -1.9
H     3.9    4.3   -0.5
H     4.7    2.8    1.4
