          18
 frame:         5671
C     1.1    0.1    0.1
N     2.6   -0.1   -0.1
C     2.8   -0.8   -1.3
C     3.2    1.3   -0.1
C     3.2    2.0    1.2
O     4.7    2.3    1.0
C     4.7    1.3   -0.1
H     0.9    0.6    1.1
H     0.7   -1.0    0.2
H     0.6    0.6   -0.7
H     2.4   -1.8   -1.3
H     3.9   -0.9   -1.5
H     2.4   -0.3   -2.2
H     2.8    1.9   -1.0
H     3.0    1.4    2.1
H     2.7    3.0    1.3
H     5.2    1.8   -0.9
H     5.2    0.4    0.2
