          16
 frame:         5884
C     2.2   -0.8   -1.1
O     1.9    0.4   -0.4
C     3.0    1.2   -0.1
C     3.5    2.2   -1.1
N     2.9    2.5   -2.3
C     2.8    2.6    0.2
O     3.5    3.2    1.3
H     1.3   -1.3   -1.3
H     2.8   -1.4   -0.4
H     2.8   -0.6   -2.0
H     3.8    0.7    0.6
H     4.6    2.4   -1.0
H     1.9    2.3   -2.3
H     3.3    1.9   -3.0
H     1.8    3.0    0.1
H     3.8    4.1    1.1
