          13
 frame:         6167
N     1.2   -0.0    0.5
C     2.4   -0.0   -0.1
N     2.9   -1.2   -0.7
O     4.3   -1.1   -0.6
C     4.6    0.2   -0.6
C     4.0    1.1   -1.6
C     3.4    1.0   -0.2
H     0.9    0.9    0.7
H     2.6   -2.1   -0.2
H     5.6    0.4   -0.2
H     4.5    2.0   -1.9
H     3.5    0.7   -2.5
H     3.4    1.9    0.4
