          15
 frame:         5838
C     1.4   -0.4   -0.9
N     2.9   -0.2   -0.7
N     3.3    1.0   -0.5
C     4.6    1.1   -0.1
C     5.5    0.1    0.2
C     5.0    2.6    0.0
O     6.1    2.9    0.4
H     1.3   -1.4   -1.4
H     1.1    0.4   -1.6
H     0.9   -0.4    0.1
H     3.4   -1.0   -0.3
H     5.2   -0.6    1.0
H     6.5    0.5    0.6
H     5.7   -0.6   -0.7
H     4.2    3.3   -0.3
