          13
 frame:         5990
C     1.0    0.1   -0.6
O     2.5    0.2   -0.7
C     3.1    1.3   -0.3
N     2.3    2.5   -0.1
C     4.4    1.3   -0.0
C     5.2    2.4    0.3
N     5.7    3.4    0.5
H     0.8   -0.9   -0.8
H     0.6    0.7   -1.4
H     0.7    0.5    0.4
H     1.6    2.7   -0.8
H     2.9    3.3    0.1
H     4.9    0.3   -0.0
