          17
 frame:         3933
C     2.9   -0.7    1.8
C     2.9   -0.3    0.3
C     3.2    1.2    0.1
O     2.2    2.0    0.8
C     4.6    1.6    0.6
C     5.8    0.9    0.0
O     4.7    2.5    1.4
H     2.6   -1.8    1.8
H     2.2   -0.1    2.4
H     3.9   -0.6    2.2
H     1.9   -0.4   -0.1
H     3.5   -0.9   -0.3
H     3.2    1.4   -1.0
H     2.7    2.6    1.3
H     5.9   -0.1    0.5
H     6.7    1.5    0.2
H     5.6    0.7   -1.1
