          18
 frame:         1622
C     1.4    0.5   -0.2
C     2.8   -0.1    0.1
C     3.0   -1.6    0.1
C     4.5   -1.9    0.0
C     5.0   -0.7   -0.8
C     4.0    0.4   -0.6
N     3.7    0.7    0.9
H     1.4    1.5   -0.3
H     0.7    0.2    0.7
H     1.0    0.0   -1.1
H     2.4   -2.1   -0.7
H     2.5   -2.0    1.1
H     5.0   -1.9    1.0
H     4.7   -2.9   -0.4
H     6.0   -0.5   -0.6
H     5.0   -0.9   -1.9
H     4.0    1.3   -1.2
H     4.3    0.1    1.5
