          19
 frame:         3882
C     1.4   -0.3    0.2
C     2.5    0.4   -0.5
C     3.0   -0.3   -1.7
O     4.1    0.2   -2.4
C     2.1    1.8   -0.9
C     0.8    2.1   -1.5
C     3.0    2.9   -0.7
H     1.0    0.2    1.1
H     1.7   -1.3    0.6
H     0.5   -0.5   -0.4
H     3.4    0.5    0.2
H     2.1   -0.5   -2.4
H     3.2   -1.4   -1.4
H     3.9    1.2   -2.4
H    -0.1    1.9   -0.8
H     0.6    1.4   -2.4
H     0.7    3.1   -1.9
H     3.9    2.7   -0.2
H     2.7    3.9   -1.0
