          17
 frame:         1740
C     0.8    0.4   -0.0
C     2.3    0.1    0.1
C     3.2    1.1    0.9
C     3.8   -0.2    1.6
N     2.6   -1.0    1.1
N     2.6   -2.2    0.7
C     3.5   -3.1    1.3
H     0.3   -0.4   -0.4
H     0.7    1.3   -0.7
H     0.4    0.7    1.0
H     2.7   -0.1   -0.9
H     2.7    1.7    1.6
H     3.9    1.6    0.3
H     4.8   -0.6    1.1
H     3.9   -0.2    2.7
H     3.4   -4.1    1.0
H     4.2   -2.8    2.0
