          15
 frame:         1925
C     0.9    0.0    0.3
C     2.4   -0.0   -0.1
N     2.7    1.1   -1.0
N     3.9    1.2   -1.6
C     4.5    0.1   -1.8
C     3.9   -1.2   -1.6
C     2.8   -1.3   -0.8
H     0.7    1.0    0.8
H     0.7   -0.8    1.0
H     0.3   -0.1   -0.6
H     3.0    0.1    0.8
H     2.4    2.0   -0.7
H     5.5    0.1   -2.3
H     4.3   -2.1   -2.1
H     2.2   -2.2   -0.7
