          17
 frame:         5431
C     0.7    0.6   -1.4
C     1.1   -0.1   -0.1
N     2.5   -0.3   -0.0
N     2.9   -0.8    1.2
C     3.4    0.0    2.2
C     3.9   -0.7    3.5
O     3.3    1.2    2.1
H    -0.3    0.7   -1.6
H     1.1    0.0   -2.3
H     1.2    1.6   -1.5
H     0.6   -1.1   -0.1
H     0.7    0.5    0.7
H     3.0    0.7   -0.0
H     3.2   -1.8    1.2
H     3.4   -0.3    4.3
H     5.0   -0.4    3.6
H     3.8   -1.8    3.4
