          18
 frame:         4801
C     0.8   -0.6   -0.4
C     2.3   -0.6   -0.7
N     2.8    0.2   -1.9
C     3.1    0.7   -0.5
C     4.5    0.7   -0.1
C     5.4   -0.4   -0.7
O     5.5   -0.2   -2.1
H     0.6   -0.9    0.6
H     0.3   -1.3   -1.1
H     0.3    0.4   -0.5
H     2.8   -1.5   -0.6
H     2.0    0.7   -2.3
H     2.5    1.5   -0.2
H     4.6    0.6    1.0
H     4.9    1.7   -0.4
H     5.0   -1.4   -0.5
H     6.4   -0.3   -0.3
H     4.6   -0.2   -2.5
