          17
 frame:         4078
C     3.6   -1.3   -0.5
C     2.8   -0.2    0.2
O     2.8   -0.4    1.6
C     3.2    1.3   -0.1
O     2.4    2.1    0.6
C     4.7    1.5    0.1
C     5.2    2.4    1.1
H     3.6   -1.1   -1.6
H     3.2   -2.3   -0.3
H     4.7   -1.2   -0.2
H     1.8   -0.3   -0.1
H     3.8   -0.2    1.9
H     3.0    1.4   -1.2
H     2.2    1.7    1.4
H     5.4    1.0   -0.5
H     4.5    2.9    1.7
H     6.2    2.5    1.2
