          20
 frame:         2244
C     0.9   -0.5    0.2
C     2.4   -0.4   -0.1
C     2.8   -1.4   -1.3
C     2.7    1.0   -0.4
N     4.2    1.2   -0.6
C     4.7    2.6   -0.4
C     4.9    1.5    0.6
H     0.6    0.1    1.0
H     0.6   -1.6    0.4
H     0.3   -0.2   -0.7
H     2.9   -0.7    0.8
H     2.2   -1.1   -2.2
H     2.6   -2.4   -1.0
H     3.8   -1.3   -1.5
H     2.4    1.7    0.4
H     2.2    1.4   -1.4
H     4.0    3.3   -0.1
H     5.5    2.9   -1.1
H     5.9    1.0    0.7
H     4.4    1.6    1.6
