          20
 frame:          236
C     1.1   -0.1    0.1
C     2.6   -0.2    0.1
C     3.3    1.1   -0.1
C     4.9    1.1   -0.0
C     5.5    0.1   -1.1
C     5.4    2.5   -0.1
H     0.6   -1.1    0.2
H     0.7    0.3   -0.9
H     0.7    0.6    0.9
H     2.9   -1.0   -0.7
H     2.9   -0.7    1.1
H     2.9    1.8    0.6
H     3.0    1.5   -1.1
H     5.1    0.7    1.0
H     5.3    0.5   -2.1
H     5.2   -0.9   -1.0
H     6.6    0.1   -1.0
H     5.2    2.9   -1.1
H     6.5    2.5    0.0
H     5.0    3.1    0.7
