          18
 frame:         4757
C     0.9    0.1    0.1
C     2.4   -0.0    0.0
C     3.2    0.9    0.9
O     3.9   -0.2    1.5
C     3.0   -1.1    0.9
C     3.8   -2.2    0.1
N     4.5   -3.1    1.1
H     0.4   -0.7   -0.5
H     0.5    1.0   -0.4
H     0.5    0.1    1.1
H     2.7   -0.0   -1.0
H     2.6    1.5    1.7
H     3.9    1.6    0.4
H     2.4   -1.6    1.6
H     4.4   -1.8   -0.6
H     3.0   -2.9   -0.4
H     5.2   -2.6    1.6
H     5.0   -3.9    0.6
