          17
 frame:         4056
C     3.9    3.6   -3.1
C     4.3    3.5   -1.7
O     5.2    2.3   -1.6
C     5.6    2.1   -0.2
C     6.2    0.7   -0.1
C     6.7    3.1    0.2
O     6.8    3.6    1.3
H     3.2    4.5   -3.3
H     3.3    2.7   -3.5
H     4.8    3.7   -3.8
H     3.5    3.4   -1.0
H     4.9    4.4   -1.4
H     4.8    2.2    0.5
H     7.1    0.6   -0.8
H     5.5   -0.0   -0.5
H     6.5    0.5    0.9
H     7.3    3.4   -0.7
