          17
 frame:         3956
C     2.3   -0.6   -1.5
C     2.6    0.1   -0.2
O     3.4   -0.8    0.6
C     3.4    1.4   -0.3
C     2.6    2.7   -0.7
C     3.1    3.1    0.7
O     3.8    1.9    1.0
H     1.7    0.1   -2.1
H     1.7   -1.5   -1.3
H     3.2   -0.8   -2.0
H     1.7    0.4    0.4
H     3.6   -0.3    1.4
H     4.3    1.2   -0.9
H     1.6    2.5   -0.8
H     3.0    3.2   -1.5
H     3.8    4.0    0.7
H     2.3    3.3    1.5
