          13
 frame:         4280
O     0.9   -0.2   -0.4
C     2.2    0.1   -0.0
C     3.4   -0.7   -0.6
O     4.2    0.4   -0.3
C     3.1    1.2   -0.8
C     2.9    0.7   -2.2
C     3.1   -0.6   -2.1
H     0.3    0.1    0.3
H     2.3    0.2    1.1
H     3.7   -1.7   -0.2
H     3.1    2.3   -0.5
H     2.7    1.3   -3.1
H     3.1   -1.4   -2.8
