          16
 frame:         1944
C     2.5   -0.6   -1.4
C     2.4    0.1   -0.0
C     2.9    1.5    0.0
C     2.2    2.7    0.1
C     3.2    3.7    0.1
C     4.4    3.2   -0.1
N     4.2    1.8   -0.1
H     2.1   -1.6   -1.4
H     3.5   -0.6   -1.8
H     1.9   -0.0   -2.1
H     3.0   -0.6    0.7
H     1.4    0.1    0.3
H     1.1    2.8    0.3
H     3.0    4.8    0.1
H     5.4    3.6   -0.1
H     5.0    1.1   -0.2
