          15
 frame:         2715
C     1.1   -0.4   -0.3
N     2.5   -0.2    0.1
C     3.1    1.1    0.0
C     2.2    2.3    0.1
C     4.5    1.2   -0.0
C     5.1    2.4   -0.0
N     5.7    3.5    0.0
H     0.9   -1.5   -0.0
H     0.9   -0.3   -1.3
H     0.5    0.2    0.3
H     3.1   -0.9   -0.1
H     1.6    2.2    1.0
H     1.5    2.3   -0.8
H     2.8    3.2    0.1
H     5.1    0.3   -0.1
