          13
 frame:         4596
C     0.8   -1.2    0.4
N    -0.5   -1.4   -0.3
N    -1.5   -0.6   -0.2
C    -1.2    0.7   -0.0
C     0.1    1.2    0.2
O     1.1    0.9   -0.9
C     1.2    0.2    0.4
H     1.5   -1.9   -0.1
H     0.7   -1.5    1.5
H    -0.8   -2.4   -0.2
H    -2.1    1.4   -0.1
H     0.2    2.2    0.6
H     2.1    0.5    1.0
