          16
 frame:         4847
C     0.9   -0.1   -0.2
C     2.5    0.0    0.0
N     3.1    0.2   -1.3
C     3.0   -1.2    0.7
O     4.0   -0.8    1.7
C     3.8    0.6    1.9
C     2.9    1.1    1.0
H     0.4   -0.2    0.8
H     0.7   -0.9   -0.8
H     0.6    0.9   -0.7
H     4.1    0.4   -1.2
H     2.7    1.0   -1.8
H     3.5   -1.9    0.0
H     2.2   -1.8    1.2
H     4.3    1.0    2.7
H     2.6    2.1    0.9
