          13
 frame:         4984
C     1.0   -0.1   -0.1
C     2.5    0.1    0.1
C     2.9    1.5    0.0
N     3.5    2.2    0.9
N     3.7    3.5    0.4
C     3.3    3.4   -0.8
O     2.8    2.2   -1.2
H     0.7   -1.1   -0.0
H     0.6    0.3   -1.0
H     0.4    0.5    0.7
H     3.0   -0.5   -0.7
H     2.8   -0.3    1.1
H     3.3    4.2   -1.6
