          13
 frame:         3532
C     1.7   -0.4   -1.2
C     2.1    0.2   -0.1
C     3.2    1.2   -0.1
O     3.7    1.6   -1.5
C     3.5    3.0   -1.6
C     3.0    3.5   -0.4
O     2.7    2.5    0.5
H     0.9   -1.1   -1.2
H     2.1   -0.2   -2.2
H     1.7    0.0    0.8
H     4.1    0.9    0.5
H     3.9    3.4   -2.5
H     2.7    4.5   -0.2
