          14
 frame:         7080
C     2.9   -1.3    0.4
N     2.3   -0.0   -0.1
C     3.0    1.1   -0.0
C     2.6    2.5   -0.2
C     3.7    3.4   -0.1
C     4.9    2.8    0.2
S     4.8    1.1    0.3
H     2.1   -2.1    0.3
H     3.1   -1.2    1.5
H     3.7   -1.5   -0.2
H     1.3    0.1    0.1
H     1.6    2.7   -0.5
H     3.6    4.5   -0.2
H     5.9    3.3    0.3
