          16
 frame:         6383
N     1.3   -0.4   -0.5
C     1.8    0.4    0.5
O     1.3    0.3    1.6
C     2.8    1.5    0.1
C     2.5    3.0    0.5
C     4.0    3.1    0.9
C     4.0    1.6    1.0
H     1.6   -0.2   -1.5
H     0.6   -1.1   -0.3
H     3.1    1.4   -1.0
H     1.8    3.0    1.4
H     2.1    3.6   -0.3
H     4.6    3.5    0.1
H     4.2    3.7    1.9
H     5.0    1.1    0.7
H     3.8    1.2    2.0
