          12
 frame:         4851
C     1.0   -0.0   -0.0
C     2.5    0.1   -0.0
N     3.2    1.2    0.0
C     4.5    0.7    0.0
O     5.5    1.6    0.0
C     4.5   -0.7    0.0
O     3.2   -1.1   -0.0
H     0.6    1.0    0.0
H     0.7   -0.6    0.9
H     0.7   -0.6   -0.9
H     6.4    1.2    0.0
H     5.3   -1.4    0.0
