          17
 frame:         1335
C     1.0    0.0   -0.0
C     2.4    0.0    0.0
C     3.6    0.0    0.0
C     5.1    0.0    0.0
C     5.9   -0.7   -1.0
C     5.9    0.8   -1.0
C     7.1    1.5   -0.6
H     0.6    1.0    0.0
H     0.6   -0.5    0.9
H     0.6   -0.5   -0.9
H     5.5   -0.0    1.0
H     5.3   -1.2   -1.8
H     6.8   -1.3   -0.7
H     5.2    1.2   -1.8
H     7.7    1.0    0.2
H     6.9    2.5   -0.2
H     7.8    1.7   -1.5
