          19
 frame:         3311
C     1.0    0.2   -0.1
C     2.5    0.1   -0.1
C     3.3   -0.6   -1.2
O     2.6   -1.1   -2.4
C     3.4    0.9   -1.0
C     2.8    1.8   -2.1
C     4.7    1.4   -0.4
H     0.6    1.1    0.3
H     0.6   -0.7    0.4
H     0.6    0.1   -1.2
H     2.9   -0.1    0.9
H     4.2   -1.2   -0.9
H     2.2   -1.9   -2.1
H     1.9    1.4   -2.6
H     3.5    2.0   -2.9
H     2.5    2.8   -1.6
H     5.2    0.7    0.3
H     4.5    2.4    0.1
H     5.5    1.6   -1.2
