          17
 frame:         4171
C     1.1   -0.3   -0.1
O     2.4   -0.0    0.3
C     2.9    1.3   -0.0
C     2.3    2.4    1.0
C     4.4    1.3   -0.0
C     5.6    1.3    0.0
C     7.0    1.4    0.0
H     0.9   -1.3    0.0
H     1.0   -0.1   -1.2
H     0.4    0.3    0.4
H     2.6    1.6   -1.1
H     2.7    2.1    2.0
H     1.2    2.4    0.9
H     2.7    3.4    0.7
H     7.4    2.4    0.1
H     7.5    0.9   -0.9
H     7.4    0.8    0.9
