          13
 frame:         2313
C     1.1   -0.2   -0.3
C     2.6   -0.1   -0.1
C     3.0    1.4   -0.0
C     2.5    2.1    1.1
N     1.9    2.6    2.0
C     4.5    1.5    0.0
N     5.7    1.6    0.0
H     0.8   -1.3   -0.3
H     0.7    0.3   -1.2
H     0.5    0.2    0.6
H     3.1   -0.5   -0.9
H     2.9   -0.6    0.8
H     2.7    1.9   -0.9
