          12
 frame:         5078
C     1.4   -0.5   -0.8
C     2.3   -0.0    0.1
C     3.0    1.2    0.0
C     2.7    2.3    1.2
O     1.8    2.1    1.9
C     4.5    1.0   -0.0
N     5.6    0.9   -0.0
H     0.8   -1.4   -0.7
H     1.2    0.1   -1.7
H     2.4   -0.6    1.1
H     2.8    1.8   -0.9
H     3.4    3.1    1.2
