          17
 frame:         2757
C     0.9    0.2    0.2
N     2.4    0.0    0.1
C     3.1    1.1    0.1
N     4.5    1.1   -0.0
C     5.2   -0.2   -0.1
C     5.2    2.3   -0.0
C     6.5    2.4   -0.1
H     0.5   -0.3    1.1
H     0.4   -0.3   -0.7
H     0.6    1.2    0.2
H     2.6    2.1    0.1
H     4.4   -1.0   -0.0
H     5.9   -0.3    0.8
H     5.8   -0.3   -1.0
H     4.5    3.1    0.0
H     7.2    1.6   -0.2
H     6.9    3.4   -0.1
