          18
 frame:         5980
C     1.2    1.8   -1.6
O     2.6    1.9   -1.4
C     2.9    1.4   -0.1
C     4.4    1.5    0.1
N     5.2    0.8   -0.9
C     4.9    3.0    0.2
O     6.3    3.0    0.3
H     1.0    2.2   -2.7
H     0.6    2.3   -0.9
H     0.9    0.7   -1.6
H     2.6    0.3   -0.0
H     2.4    1.9    0.7
H     4.7    1.0    1.1
H     4.8    1.0   -1.9
H     5.2   -0.2   -0.8
H     4.5    3.4    1.1
H     4.6    3.5   -0.7
H     6.6    2.3   -0.2
