          13
 frame:         5827
C     1.5   -0.1    0.5
N     2.6    0.1   -0.2
N     2.9    1.4   -0.6
C     2.6    2.6    0.2
C     4.0    3.1   -0.2
O     4.6    4.1   -0.1
C     4.3    1.7   -0.8
H     1.3   -1.1    0.8
H     0.8    0.7    0.8
H     2.5    2.4    1.2
H     1.8    3.2   -0.2
H     4.7    1.7   -1.8
H     5.0    1.1   -0.1
