          15
 frame:         1817
C     0.9    0.1    0.3
C     2.3   -0.1   -0.1
C     3.3    0.9    0.6
N     3.6   -0.1    1.6
C     3.1   -1.2    0.7
C     4.1   -1.9   -0.0
N     4.9   -2.4   -0.6
H     0.3   -0.8   -0.1
H     0.4    1.0   -0.2
H     0.7    0.1    1.4
H     2.5   -0.1   -1.2
H     2.8    1.8    1.1
H     4.1    1.2   -0.0
H     4.6   -0.2    1.9
H     2.4   -1.9    1.2
