          12
 frame:         7127
N     0.9   -0.0   -0.2
C     2.4    0.0   -0.1
C     3.1    1.2   -0.1
O     2.6    2.5   -0.3
S     4.8    0.9   -0.1
C     4.5   -0.8    0.0
C     3.2   -1.1   -0.0
H     0.5    0.9   -0.1
H     0.5   -0.7    0.4
H     2.9    3.0    0.5
H     5.4   -1.5    0.1
H     2.8   -2.1    0.0
