          17
 frame:         1327
C     0.9   -0.1   -0.2
C     2.4    0.1    0.2
C     3.1    1.2    0.2
C     4.6    1.3    0.6
C     4.9    2.9    0.6
C     3.6    3.5   -0.0
C     2.6    2.5   -0.2
H     0.9   -0.8   -1.0
H     0.5    0.8   -0.5
H     0.3   -0.5    0.6
H     2.9   -0.8    0.6
H     5.2    0.8   -0.1
H     4.7    0.9    1.6
H     5.8    3.1   -0.0
H     5.1    3.3    1.6
H     3.5    4.5   -0.2
H     1.7    2.8   -0.6
