          18
 frame:         1714
C     1.0    0.1    0.0
C     2.5    0.0   -0.1
C     3.2   -1.1   -0.1
C     2.8   -2.5   -0.2
C     4.7   -0.7   -0.1
N     4.7    0.8   -0.2
C     3.3    1.2    0.1
H     0.5   -0.9   -0.0
H     0.6    0.7   -0.8
H     0.6    0.6    1.0
H     3.6   -3.2   -0.2
H     2.1   -2.8   -1.1
H     2.2   -2.8    0.7
H     5.1   -1.1    0.8
H     5.3   -1.2   -0.9
H     5.0    1.0   -1.2
H     3.0    2.0   -0.7
H     3.2    1.7    1.1
