          19
 frame:         3181
C     1.0    0.1   -0.1
C     2.5    0.0   -0.0
C     3.4   -0.7   -1.1
C     2.8   -1.5   -2.2
C     3.4    0.8   -1.0
C     2.9    1.7   -2.0
O     4.6    1.4   -0.4
H     0.7    1.0    0.5
H     0.6   -0.8    0.4
H     0.6    0.2   -1.1
H     2.9   -0.1    1.0
H     4.2   -1.2   -0.7
H     1.9   -1.0   -2.6
H     2.5   -2.5   -2.0
H     3.5   -1.6   -3.1
H     2.0    1.3   -2.5
H     3.7    1.8   -2.8
H     2.7    2.7   -1.6
H     5.0    0.8    0.3
