          18
 frame:          863
C     1.7    2.7    0.7
O     3.0    2.3    0.9
C     3.6    1.8   -0.3
C     5.1    1.4    0.1
C     5.7    0.8   -1.2
C     5.9    2.6    0.6
H     1.2    3.0    1.6
H     1.1    1.9    0.3
H     1.6    3.5   -0.0
H     3.7    2.7   -1.0
H     3.1    1.0   -0.7
H     5.0    0.6    0.8
H     5.8    1.6   -2.0
H     5.2   -0.0   -1.6
H     6.8    0.5   -1.0
H     6.0    3.4   -0.1
H     6.9    2.2    0.9
H     5.4    3.0    1.5
