          13
 frame:         1127
O     1.6   -0.5   -0.8
C     2.0    0.1    0.1
C     3.0    1.3   -0.1
C     2.4    2.7    0.0
C     3.6    3.0    0.9
N     3.8    1.6    1.1
H     1.7   -0.0    1.1
H     3.6    1.1   -1.0
H     1.4    2.7    0.6
H     2.3    3.2   -0.9
H     4.4    3.5    0.3
H     3.4    3.6    1.8
H     4.8    1.3    1.1
