          16
 frame:         2259
C     0.9    0.4    0.3
C     2.3    0.1    0.1
C     2.9   -1.1   -0.1
C     2.1   -2.5   -0.2
N     2.6   -3.2   -1.4
C     3.2    1.2    0.1
C     3.9    2.2    0.1
H     0.5    1.2   -0.4
H     0.7    0.8    1.3
H     0.2   -0.5    0.1
H     3.9   -1.2   -0.3
H     1.0   -2.3   -0.1
H     2.4   -3.0    0.7
H     2.3   -2.8   -2.2
H     2.1   -4.2   -1.3
H     4.5    3.1    0.1
