          20
 frame:         2163
C     1.8   -0.7   -1.1
C     2.8   -0.3    0.0
C     3.0    1.2    0.1
C     4.2    1.8   -0.1
C     4.5    3.3   -0.0
C     3.3    4.2    0.3
N     5.7    3.5    0.9
H     1.6   -1.8   -1.1
H     2.1   -0.4   -2.1
H     0.8   -0.2   -0.9
H     3.7   -0.8   -0.1
H     2.4   -0.6    1.0
H     2.1    1.8    0.3
H     5.1    1.2   -0.2
H     4.9    3.6   -1.0
H     2.9    3.9    1.3
H     2.5    4.0   -0.4
H     3.6    5.2    0.3
H     5.4    3.2    1.9
H     5.9    4.5    0.9
