          15
 frame:         3930
C     1.1   -0.3    0.2
C     2.6    0.1    0.1
C     2.9    1.5   -0.2
O     2.0    2.4   -0.4
C     4.4    1.9   -0.2
C     4.7    2.8    0.9
O     5.6    2.7    1.7
H     0.9   -1.3    0.4
H     0.6   -0.1   -0.8
H     0.6    0.4    0.9
H     3.1   -0.6   -0.6
H     3.1   -0.2    1.1
H     4.6    2.5   -1.2
H     5.1    1.0   -0.2
H     4.0    3.7    1.0
