          15
 frame:         5783
C     0.8    0.2    0.2
N     2.2    0.2   -0.0
C     2.8    1.3    0.1
N     4.2    1.4   -0.1
C     4.9    2.5   -0.1
C     6.4    2.4   -0.3
O     4.4    3.6    0.2
H     0.2   -0.2   -0.7
H     0.3    1.2    0.4
H     0.5   -0.5    1.0
H     2.3    2.3    0.2
H     4.6    0.5   -0.3
H     6.7    1.4   -0.6
H     6.9    2.6    0.7
H     6.7    3.1   -1.0
