          15
 frame:         1551
C     0.9   -1.2    0.8
C     1.2   -0.3   -0.3
C     1.1    1.2   -0.4
C    -0.2    1.6    0.3
C    -1.4    0.6    0.2
N    -1.3   -0.7   -0.0
N     0.0   -1.2   -0.3
H     1.5   -2.1    1.0
H     0.6   -0.7    1.7
H     2.0   -0.7   -1.1
H     1.9    1.7    0.1
H     1.1    1.5   -1.4
H    -0.1    1.8    1.3
H    -0.6    2.6   -0.2
H    -2.4    1.0    0.4
