          16
 frame:         6146
N     1.1    0.1    0.6
C     2.5   -0.0    0.1
C     2.7    1.2   -0.9
O     4.0    1.2   -1.4
C     4.5   -0.0   -1.8
C     3.9   -1.2   -1.6
C     2.6   -1.3   -0.7
H     1.0    0.8    1.3
H     0.8   -0.8    1.1
H     3.2    0.1    0.9
H     2.6    2.1   -0.4
H     2.0    1.1   -1.7
H     5.4    0.1   -2.4
H     4.3   -2.1   -2.0
H     1.8   -1.5   -1.3
H     2.8   -2.1    0.0
