          13
 frame:         3406
C     0.9   -0.1   -0.0
C     2.4    0.1   -0.0
C     3.2    1.2   -0.0
O     2.8    2.5    0.0
C     4.6    0.7   -0.0
C     4.5   -0.7   -0.0
O     3.2   -1.1   -0.0
H     0.5    0.9    0.0
H     0.6   -0.6    0.9
H     0.6   -0.6   -0.9
H     3.6    3.1    0.0
H     5.5    1.3   -0.0
H     5.2   -1.5   -0.0
