          19
 frame:         1173
C     1.3    0.2    0.1
C     1.0   -0.0    1.6
C     0.1   -1.2    2.0
C     1.6   -1.2    2.3
C     2.5    1.0   -0.1
C     3.9    0.3   -0.3
C     3.2    0.9   -1.5
H     1.3   -0.8   -0.4
H     0.4    0.7   -0.3
H     0.9    0.9    2.2
H    -0.3   -1.9    1.3
H    -0.6   -1.1    2.9
H     2.0   -1.1    3.3
H     2.2   -1.9    1.7
H     2.5    2.0    0.3
H     3.9   -0.7   -0.2
H     4.7    0.9    0.1
H     3.6    1.9   -1.9
H     2.8    0.3   -2.2
