          15
 frame:         1532
C    -1.6    0.7    0.6
C    -1.1   -0.3   -0.4
C     0.0   -1.2    0.2
N     1.2   -1.2   -0.7
C     1.1   -0.3    0.5
C     0.8    1.1    0.2
N    -0.6    1.1   -0.4
H    -2.6    1.1    0.4
H    -1.3    0.6    1.6
H    -1.7   -0.7   -1.2
H    -0.2   -2.1    0.8
H     1.8   -2.0   -0.5
H     1.8   -0.5    1.4
H     0.8    1.8    1.1
H     1.4    1.6   -0.6
