          19
 frame:         4170
C     5.0   -0.1    2.0
O     4.0    0.9    2.1
C     3.9    1.6    0.8
C     2.6    2.4    0.9
C     5.1    2.4    0.5
C     5.5    3.5    1.5
C     5.8    2.2   -0.7
H     5.0   -0.6    3.0
H     6.0    0.3    1.8
H     4.7   -0.9    1.3
H     3.7    0.8   -0.0
H     2.7    3.1    1.7
H     1.7    1.8    1.1
H     2.4    3.0   -0.0
H     5.6    3.0    2.5
H     4.8    4.3    1.6
H     6.5    3.9    1.2
H     5.5    1.4   -1.4
H     6.7    2.8   -0.9
