          18
 frame:         5145
C     1.0   -0.2   -0.1
C     2.5    0.1   -0.3
C     3.3   -1.1   -0.6
N     2.7    1.2   -1.3
C     2.3    0.9   -2.7
C     3.3    2.4   -1.0
O     3.7    2.7    0.1
H     0.5    0.8    0.2
H     0.9   -0.8    0.8
H     0.6   -0.7   -0.9
H     2.9    0.6    0.6
H     3.0   -1.7   -1.5
H     3.2   -1.8    0.2
H     4.4   -0.9   -0.8
H     2.8    0.1   -3.1
H     2.5    1.8   -3.3
H     1.2    0.7   -2.8
H     3.4    3.0   -1.9
