          21
 frame:         2303
C     1.3   -0.3    1.2
C     2.7   -0.4    0.7
C     2.9   -1.5   -0.3
C     3.2    1.0    0.2
N     3.0    2.1    1.1
C     4.7    1.0   -0.3
N     5.6    0.9    0.8
H     1.1    0.4    2.0
H     0.9   -1.3    1.6
H     0.6   -0.1    0.3
H     3.4   -0.6    1.6
H     2.4   -1.2   -1.3
H     2.5   -2.4    0.0
H     3.9   -1.7   -0.6
H     2.6    1.3   -0.7
H     3.4    1.8    2.0
H     2.0    2.3    1.3
H     4.8    2.0   -0.8
H     4.8    0.2   -1.0
H     5.7    1.8    1.3
H     6.5    0.6    0.5
