          14
 frame:         5025
C     1.0   -0.0   -0.2
C     2.5    0.0   -0.1
C     3.7    0.0    0.1
C     5.1    0.0    0.2
C     5.9    1.3   -0.4
N     5.1    2.2   -1.0
O     7.1    1.4   -0.3
H     0.6    1.0   -0.1
H     0.6   -0.7    0.6
H     0.7   -0.4   -1.2
H     5.6   -0.8   -0.3
H     5.4    0.0    1.3
H     4.1    2.0   -1.1
H     5.5    3.0   -1.4
