          14
 frame:         5977
C     1.6   -0.1   -0.4
O     2.9    0.3   -0.2
C     3.1    1.6    0.0
C     2.1    2.6    0.0
N     4.5    1.9    0.2
C     5.5    1.1    0.2
O     6.7    1.4    0.5
H     1.6   -1.2   -0.6
H     1.2    0.4   -1.3
H     0.9    0.1    0.4
H     1.1    2.4   -0.1
H     2.4    3.6    0.2
H     4.7    2.9    0.4
H     5.2    0.0    0.1
