          14
 frame:         2687
C     1.1   -0.1   -0.2
N     2.5   -0.0    0.1
C     3.0    1.4    0.0
C     2.4    2.2    1.1
C     1.9    2.9    2.0
C     4.4    1.4    0.0
C     5.7    1.4   -0.0
H     0.8   -1.2   -0.2
H     0.8    0.3   -1.2
H     0.5    0.4    0.5
H     3.0   -0.6   -0.5
H     2.6    1.8   -0.9
H     1.5    3.5    2.7
H     6.7    1.4   -0.0
