          12
 frame:         6630
O     1.7   -0.6   -0.8
C     2.0    0.2    0.1
C     3.2    1.2   -0.0
C     3.7    1.5   -1.4
C     3.1    2.9   -1.6
N     2.7    3.4   -0.5
O     2.8    2.5    0.6
H     1.4    0.4    0.9
H     4.0    0.8    0.6
H     3.2    0.8   -2.2
H     4.8    1.4   -1.6
H     3.1    3.5   -2.5
