          15
 frame:         3570
C     4.5   -0.9   -2.5
C     4.1   -0.5   -1.4
C     3.7   -0.1   -0.1
C     4.3    1.4    0.2
C     5.8    1.4    0.3
C     6.6    1.8   -0.8
O     6.4    2.7    0.3
H     4.7   -1.3   -3.5
H     4.1   -0.8    0.6
H     2.6   -0.0   -0.1
H     3.8    1.7    1.2
H     3.9    2.1   -0.6
H     6.2    0.7    1.1
H     6.2    2.1   -1.7
H     7.7    1.4   -0.8
