          17
 frame:         1442
C     1.1   -0.0    0.5
C     2.5    0.0    0.0
C     2.6   -0.6   -1.4
C     2.3   -2.1   -1.5
C     1.3   -2.6   -2.2
C     3.0    1.4    0.0
C     3.4    2.5   -0.0
H     1.0    0.3    1.6
H     0.7   -1.1    0.6
H     0.4    0.6   -0.1
H     3.1   -0.6    0.7
H     3.6   -0.5   -1.8
H     1.9   -0.1   -2.1
H     2.9   -2.7   -0.8
H     0.7   -2.0   -2.9
H     1.2   -3.7   -2.2
H     3.8    3.5   -0.0
