          14
 frame:         4583
C     1.7   -0.1   -0.1
C     0.7   -1.1    0.5
O    -0.4   -1.4   -0.3
N    -1.5   -0.6   -0.2
C    -1.3    0.6    0.2
C    -0.1    1.5    0.3
O     1.0    1.1   -0.5
H     2.2   -0.5   -0.9
H     2.5    0.1    0.7
H     1.2   -2.1    0.7
H     0.3   -0.8    1.5
H    -2.3    1.2    0.3
H     0.2    1.6    1.4
H    -0.3    2.5    0.0
