          15
 frame:         3411
C     1.1   -0.1    0.2
C     2.6    0.1   -0.1
O     2.8    0.3   -1.5
C     3.3    1.2    0.8
C     4.0    0.0    1.6
C     3.5   -1.0    0.5
O     3.8   -2.1    0.2
H     0.9   -0.2    1.3
H     0.7   -1.0   -0.3
H     0.5    0.8   -0.1
H     2.6   -0.5   -2.0
H     2.7    1.9    1.3
H     4.0    1.7    0.1
H     5.1    0.1    1.7
H     3.5   -0.1    2.6
