          20
 frame:         2160
C     1.8   -0.6    1.2
C     2.6   -0.2   -0.0
C     3.0    1.2   -0.0
C     4.2    1.8   -0.0
C     4.6    3.2   -0.0
C     5.4    3.6    1.2
N     5.8    5.0    1.1
H     1.6   -1.7    1.2
H     0.9   -0.0    1.3
H     2.4   -0.4    2.1
H     2.1   -0.4   -0.9
H     3.6   -0.8   -0.1
H     2.2    2.0    0.0
H     5.1    1.0   -0.0
H     3.7    3.8   -0.1
H     5.2    3.5   -0.9
H     6.3    3.0    1.3
H     4.8    3.4    2.1
H     6.4    5.2    0.4
H     6.3    5.3    2.0
