          14
 frame:         6188
N     1.0   -0.1    0.6
C     2.1   -0.1    0.3
C     3.5   -0.0   -0.0
C     4.3    1.2    0.6
C     5.5    0.5    1.3
O     5.6   -0.8    0.7
C     4.3   -1.2    0.5
H     3.6    0.0   -1.1
H     3.6    1.8    1.3
H     4.6    1.9   -0.2
H     6.4    1.1    1.2
H     5.2    0.4    2.4
H     4.3   -2.1   -0.2
H     3.9   -1.6    1.5
