          14
 frame:          832
C     0.9   -0.0    0.0
C     2.4   -0.0    0.0
O     2.9    1.3    0.0
C     4.3    1.4    0.0
C     4.8    2.7    0.0
C     5.2    3.9    0.0
H     0.5   -1.1    0.0
H     0.5    0.5   -0.9
H     0.5    0.5    0.9
H     2.8   -0.6   -0.9
H     2.8   -0.6    0.9
H     4.7    0.8   -0.9
H     4.7    0.8    0.9
H     5.6    4.9    0.0
