          14
 frame:         2776
C     1.1   -0.3   -0.4
N     2.3    0.1    0.3
C     3.0    1.3    0.0
N     2.5    2.5   -0.2
C     1.1    2.8   -0.1
C     4.4    1.1    0.0
N     5.6    0.9    0.1
H     0.8   -1.3   -0.1
H     1.2   -0.3   -1.5
H     0.2    0.3   -0.1
H     2.9   -0.7    0.5
H     1.0    3.9    0.0
H     0.7    2.3    0.8
H     0.6    2.5   -1.0
