          16
 frame:         5013
C     1.0    0.1   -0.1
C     2.5   -0.1   -0.0
C     3.1   -1.5   -0.1
C     3.3    1.1    0.1
C     4.7    1.1    0.3
N     5.3    2.3    0.4
O     6.7    2.1    0.5
H     0.7    1.1   -0.1
H     0.5   -0.5    0.7
H     0.7   -0.4   -1.1
H     2.6   -2.1    0.7
H     4.2   -1.5    0.0
H     2.8   -1.9   -1.1
H     2.8    2.0    0.2
H     5.3    0.2    0.2
H     7.0    3.0    0.6
