          15
 frame:         7062
C     1.1   -0.1    0.1
C     2.6    0.0   -0.1
S     3.1    1.7   -0.0
O     2.7    2.4   -1.2
O     2.7    2.2    1.3
C     4.9    1.7    0.0
O     5.4    1.1    1.2
H     0.8   -1.2    0.0
H     0.6    0.4   -0.7
H     0.8    0.2    1.1
H     2.9   -0.3   -1.1
H     3.2   -0.5    0.7
H     5.2    2.7   -0.2
H     5.3    1.1   -0.8
H     5.0    1.7    1.9
