          17
 frame:         5951
C     1.7    1.7   -2.0
O     3.1    1.8   -1.6
C     3.2    1.8   -0.2
C     4.7    1.9    0.1
C     5.3    3.2   -0.2
N     5.8    4.0    0.7
N     6.2    5.2    0.3
H     1.6    1.8   -3.1
H     1.1    2.6   -1.6
H     1.2    0.8   -1.6
H     2.9    0.8    0.2
H     2.7    2.6    0.3
H     5.3    1.1   -0.4
H     4.9    1.7    1.2
H     5.3    3.5   -1.3
H     6.5    5.3   -0.7
H     7.0    5.5    0.9
