          13
 frame:         6599
O     0.9   -0.0    0.0
C     2.1   -0.0   -0.0
N     2.9    1.1    0.2
C     4.3    1.2   -0.1
C     5.0   -0.1    0.1
C     4.3   -1.2    0.0
N     2.9   -1.2   -0.2
H     2.3    2.0    0.2
H     4.7    2.0    0.6
H     4.5    1.7   -1.1
H     6.1   -0.1    0.2
H     4.7   -2.2    0.1
H     2.3   -2.0   -0.1
