          15
 frame:         6843
O     0.7    1.8   -0.3
N     1.9    1.1   -0.5
C     2.9    1.8   -0.1
C     4.3    1.2   -0.2
C     5.3    2.2   -0.8
N     5.7    2.6    0.5
C     5.1    1.3    1.1
H     0.0    1.2   -0.6
H     2.8    2.8    0.4
H     4.2    0.2   -0.7
H     4.9    3.0   -1.5
H     6.0    1.6   -1.4
H     6.7    2.6    0.7
H     5.8    0.5    1.1
H     4.6    1.4    2.0
