          12
 frame:          930
O     2.7   -0.7    1.2
C     2.3   -0.0    0.0
C     2.8    1.4   -0.0
C     2.0    2.5   -0.2
C     4.2    1.5    0.1
C     5.4    1.5    0.2
H     3.6   -0.7    1.2
H     1.2   -0.0    0.0
H     2.6   -0.6   -0.9
H     0.9    2.3   -0.2
H     2.4    3.5   -0.2
H     6.5    1.6    0.3
