          19
 frame:         1441
C     0.9    0.3    0.3
C     2.4    0.2    0.0
C     2.7   -0.6   -1.2
C     4.2   -0.9   -1.5
C     4.7   -2.1   -1.6
C     3.0    1.6   -0.2
C     3.9    2.2    0.6
H     0.7    0.9    1.2
H     0.5   -0.7    0.4
H     0.4    0.8   -0.6
H     2.9   -0.2    0.9
H     2.2   -0.1   -2.1
H     2.2   -1.6   -1.1
H     4.8   -0.0   -1.6
H     4.1   -3.0   -1.4
H     5.8   -2.2   -1.7
H     2.5    2.2   -1.0
H     4.4    1.7    1.4
H     4.2    3.2    0.4
