          14
 frame:          525
C     0.8    0.2   -0.0
C     2.2    0.0   -0.1
N     3.0    0.9    0.4
N     4.4    0.5    0.2
C     5.2    1.4    0.7
C     6.7    1.3    0.6
H     0.3   -0.7    0.5
H     0.3    0.2   -1.1
H     0.5    1.1    0.5
H     2.6   -0.9   -0.6
H     4.8    2.3    1.2
H     6.9    0.3    0.1
H     7.1    1.3    1.6
H     7.1    2.1    0.1
