          17
 frame:         5380
C     1.7   -0.6   -1.0
C     2.8   -0.4    0.1
N     3.7    0.7   -0.3
C     4.7    1.1    0.6
N     5.2    0.5    1.6
O     5.2    2.3    0.2
C     6.3    2.8    0.9
H     1.0   -1.4   -0.7
H     2.2   -0.8   -1.9
H     1.1    0.3   -1.1
H     3.3   -1.3    0.2
H     2.3   -0.2    1.1
H     3.3    1.4   -0.8
H     4.7   -0.4    1.8
H     6.6    3.7    0.5
H     7.2    2.0    0.9
H     6.0    2.9    2.0
