          21
 frame:         2718
C     1.2   -0.2    0.3
N     2.7    0.1    0.2
C     3.1    1.5    0.2
C     2.6    2.2    1.5
C     4.6    1.6    0.0
C     5.5    1.1    1.2
N     5.0    0.8   -1.2
H     1.0   -1.2    0.1
H     0.7    0.5   -0.5
H     0.9    0.1    1.3
H     3.0   -0.3   -0.7
H     2.6    2.0   -0.6
H     2.9    1.6    2.4
H     1.6    2.3    1.6
H     3.1    3.2    1.6
H     4.8    2.6   -0.1
H     5.2    0.1    1.5
H     5.3    1.7    2.1
H     6.5    1.2    1.0
H     5.3   -0.1   -1.0
H     5.8    1.3   -1.6
