          17
 frame:         3389
C     1.0   -0.3    0.5
C     2.4    0.1    0.0
O     2.9    1.3    0.6
C     4.1    0.7    0.9
C     3.6   -0.8    0.6
C     4.3   -1.6   -0.3
C     4.6   -2.9   -0.0
H     0.7   -1.3    0.0
H     0.2    0.5    0.1
H     0.9   -0.4    1.6
H     2.4    0.1   -1.1
H     4.9    1.0    0.2
H     4.5    0.8    1.9
H     3.3   -1.3    1.5
H     4.7   -1.2   -1.2
H     4.3   -3.4    0.9
H     5.2   -3.5   -0.8
