          22
 frame:         2192
C     1.1    0.0   -0.6
C     2.6    0.2   -0.5
C     3.0    1.6   -0.2
C     4.5    1.8   -0.0
C     4.9    3.3    0.3
C     6.4    3.3    0.6
N     4.5    4.2   -0.8
H     0.8   -1.0   -0.9
H     0.7    0.7   -1.4
H     0.5    0.3    0.3
H     3.1   -0.1   -1.4
H     3.0   -0.5    0.3
H     2.5    1.9    0.8
H     2.6    2.3   -0.9
H     5.0    1.5   -1.0
H     4.9    1.2    0.8
H     4.4    3.6    1.2
H     7.0    3.0   -0.2
H     6.7    2.7    1.5
H     6.8    4.4    0.8
H     5.1    4.0   -1.6
H     4.8    5.1   -0.6
