          15
 frame:         1913
C     0.9   -0.1   -0.0
C     2.4    0.0   -0.0
C     3.2    1.1   -0.0
C     2.8    2.6   -0.0
N     4.5    0.7   -0.0
C     4.5   -0.6    0.0
N     3.2   -1.1    0.0
H     0.4    0.8    0.0
H     0.5   -0.7    0.9
H     0.5   -0.7   -0.9
H     3.7    3.2   -0.0
H     2.2    2.8    0.9
H     2.2    2.8   -0.9
H     5.4   -1.2    0.0
H     3.0   -2.1    0.0
