          12
 frame:         6603
O     0.9   -0.0    0.0
C     2.1   -0.0   -0.0
N     2.9   -1.2    0.0
C     4.3   -1.2    0.0
C     5.0   -0.1   -0.0
C     4.3    1.2   -0.0
O     2.8    1.1   -0.0
H     2.3   -2.0    0.0
H     4.7   -2.2    0.0
H     6.1   -0.1   -0.0
H     4.6    1.8    0.8
H     4.5    1.8   -0.9
