          18
 frame:         2383
C     0.6   -0.4    0.4
C     2.1   -0.4    0.3
C     2.7    1.0    0.1
N     4.2    1.0    0.1
C     4.8    2.3   -0.1
C     6.2    2.3   -0.4
C     7.4    2.2   -0.6
H     0.2   -1.4    0.5
H     0.1    0.1   -0.5
H     0.3    0.2    1.2
H     2.5   -1.0   -0.6
H     2.6   -0.8    1.2
H     2.4    1.6    1.0
H     2.3    1.5   -0.8
H     4.5    0.4   -0.7
H     4.5    3.0    0.7
H     4.3    2.9   -1.0
H     8.4    2.2   -0.8
