          14
 frame:         6909
C     0.8    0.1   -0.0
C     2.3    0.1   -0.0
C     3.2    1.1    0.0
C     4.6    0.6    0.0
C     4.7   -0.8   -0.1
N     5.8   -1.6   -0.2
S     3.1   -1.5   -0.1
H     0.5    1.2    0.0
H     0.4   -0.3    0.9
H     0.3   -0.3   -0.9
H     3.0    2.1    0.1
H     5.5    1.3    0.1
H     5.8   -2.4    0.4
H     6.7   -1.1   -0.0
