          19
 frame:         2941
N     2.0    2.6   -2.6
C     3.3    2.8   -1.9
C     3.6    1.6   -1.0
C     4.9    1.6   -0.2
N     5.0    2.7    0.7
C     5.6    0.3    0.0
C     6.1    1.2   -1.0
H     1.9    3.5   -3.2
H     1.3    2.7   -1.9
H     3.4    3.7   -1.3
H     4.1    2.8   -2.6
H     3.5    0.7   -1.6
H     2.7    1.5   -0.3
H     5.9    2.8    1.0
H     4.4    2.5    1.5
H     5.1   -0.7   -0.3
H     6.1    0.2    1.0
H     7.1    1.8   -0.8
H     6.0    1.0   -2.1
