          17
 frame:         4213
C     0.8    1.5   -1.3
O     2.3    1.4   -1.4
C     2.8    1.7   -0.1
C     4.3    1.5   -0.2
C     5.2    2.5    0.2
C     6.7    2.3    0.2
O     7.3    3.3   -0.7
H     0.5    1.3   -2.3
H     0.5    2.5   -1.0
H     0.4    0.7   -0.6
H     2.4    1.0    0.7
H     2.6    2.7    0.3
H     4.7    0.6   -0.6
H     4.8    3.4    0.6
H     6.9    1.3   -0.2
H     7.1    2.4    1.1
H     6.9    3.3   -1.5
