          13
 frame:         6956
C     1.0   -0.1    0.2
C     2.5    0.2   -0.1
C     3.2    1.2    0.7
S     4.3   -0.1    1.3
O     4.1   -0.5    2.7
O     5.7    0.0    0.7
O     3.3   -1.0    0.3
H     0.7   -1.0   -0.3
H     0.4    0.8   -0.1
H     0.9   -0.3    1.3
H     2.6    0.3   -1.2
H     2.6    1.6    1.6
H     3.7    2.0    0.2
