          19
 frame:         2459
C     3.1   -1.2   -0.5
C     2.5    0.0    0.1
N     1.9   -0.2    1.5
C     3.4    1.2    0.2
C     3.7    2.1   -1.0
N     2.9    2.6    0.1
C     3.5    3.6    0.9
H     3.5   -1.0   -1.5
H     2.4   -2.0   -0.6
H     4.0   -1.5    0.1
H     1.6    0.3   -0.5
H     2.7   -0.6    2.1
H     1.2   -0.9    1.4
H     4.3    1.1    0.9
H     3.2    1.9   -2.0
H     4.8    2.5   -1.1
H     2.9    3.5    1.9
H     3.3    4.6    0.5
H     4.5    3.4    1.1
