          16
 frame:         2899
N     2.6   -0.7   -1.3
C     2.3    0.1   -0.1
C     2.9    1.4   -0.0
C     2.2    2.6    0.2
C     3.1    3.7    0.1
C     4.4    3.2   -0.0
C     4.3    1.7   -0.2
H     2.2   -1.6   -1.3
H     3.6   -0.8   -1.4
H     2.6   -0.5    0.8
H     1.2    0.1    0.0
H     1.1    2.7    0.3
H     2.9    4.8    0.3
H     5.3    3.8   -0.1
H     4.7    1.4   -1.2
H     4.9    1.2    0.6
