          16
 frame:         6055
N     0.9    0.1   -0.4
C     2.2    0.0    0.1
C     3.2   -1.0   -0.5
C     2.9   -1.5   -1.9
C     2.7   -0.3   -2.8
O     3.2    0.9   -2.0
C     3.4    0.5   -0.7
H     0.5    1.1   -0.3
H     0.2   -0.5    0.1
H     2.3    0.1    1.2
H     3.8   -1.6    0.2
H     3.7   -2.1   -2.2
H     2.0   -2.2   -1.9
H     3.2   -0.3   -3.7
H     1.6   -0.1   -2.9
H     4.2    1.1   -0.2
