          15
 frame:         1592
C     1.9   -0.1    0.2
C     1.0   -1.4    0.2
N    -0.2   -0.6   -0.3
C    -1.0   -0.1    0.7
N    -1.1    1.1    1.0
C    -0.0    1.7    0.1
C     0.7    0.6   -0.5
H     2.9   -0.2   -0.3
H     2.1    0.2    1.2
H     1.3   -2.2   -0.6
H     0.9   -1.9    1.1
H    -1.7   -0.9    1.2
H     0.6    2.4    0.8
H    -0.5    2.4   -0.6
H     0.9    0.8   -1.6
