          14
 frame:          953
O     0.4    0.1    0.4
C     1.7   -0.4    0.1
C     2.6    0.8   -0.1
O     3.9    0.3   -0.3
C     4.9    1.2   -0.5
C     4.8    2.6   -0.5
H    -0.3   -0.6    0.5
H     1.7   -1.0   -0.9
H     2.0   -1.0    0.9
H     2.6    1.4    0.9
H     2.2    1.5   -0.9
H     5.8    0.7   -0.7
H     3.9    3.1   -0.2
H     5.7    3.1   -0.6
