          20
 frame:         2688
C     0.9    0.9   -1.2
N     2.4    0.9   -1.2
C     2.9    1.6   -0.0
C     4.4    1.6    0.0
C     5.2    2.7    0.0
C     4.7    4.1    0.1
C     6.7    2.5    0.1
H     0.6    0.4   -2.2
H     0.4    1.9   -1.2
H     0.5    0.3   -0.4
H     2.7    1.3   -2.0
H     2.5    1.1    0.9
H     2.5    2.6    0.1
H     4.8    0.6   -0.0
H     3.6    4.2   -0.0
H     5.2    4.7   -0.7
H     5.0    4.6    1.0
H     7.0    1.4    0.0
H     7.1    3.0    1.0
H     7.2    3.0   -0.8
