          14
 frame:          896
O     1.0   -0.1    0.1
C     2.5    0.0    0.0
C     2.9   -1.2   -0.8
C     3.3   -0.7   -2.2
C     3.3    0.7   -2.2
C     3.0    1.2   -0.8
H     0.7    0.7    0.5
H     2.9    0.0    1.0
H     2.1   -2.0   -0.8
H     3.8   -1.7   -0.3
H     3.5   -1.3   -3.0
H     3.5    1.3   -3.0
H     3.9    1.7   -0.3
H     2.2    2.0   -0.8
