          12
 frame:          596
N     0.9   -0.2   -0.1
C     2.3   -0.0   -0.0
C     3.1    1.1    0.1
C     4.5    0.7    0.1
C     4.5   -0.7   -0.1
N     3.2   -1.1   -0.1
H     0.5    0.4   -0.7
H     0.5   -0.1    0.8
H     2.8    2.1    0.2
H     5.4    1.3    0.2
H     5.3   -1.4   -0.1
H     2.8   -2.0   -0.3
