          17
 frame:          365
C     0.9   -0.0    0.1
C     2.4   -0.0    0.0
C     3.2    1.1    0.8
C     4.2   -0.1    1.2
N     5.5    0.1    0.5
C     3.2   -1.1    0.8
H     0.5   -0.9   -0.4
H     0.5    0.9   -0.4
H     0.6   -0.0    1.1
H     2.7    0.0   -1.1
H     2.6    1.4    1.7
H     3.6    1.9    0.3
H     4.5   -0.1    2.3
H     5.3    0.1   -0.5
H     6.1   -0.8    0.7
H     3.6   -2.0    0.2
H     2.6   -1.5    1.6
