          12
 frame:         6817
O     1.2    0.0    0.3
N     2.6    0.0    0.3
C     3.3   -1.2   -0.1
C     4.6   -0.7   -0.5
C     4.6    0.7   -0.5
C     3.2    1.1   -0.2
O     2.6    2.2   -0.2
H     1.0    1.0    0.1
H     2.7   -1.7   -0.9
H     3.4   -1.9    0.8
H     5.5   -1.3   -0.7
H     5.4    1.4   -0.8
