          17
 frame:         1725
C     1.0    0.1   -0.1
C     2.5   -0.0    0.0
C     3.0   -0.0    1.5
C     3.1   -1.2   -0.8
C     3.4   -0.6   -2.1
N     3.4    0.7   -2.0
N     3.2    1.1   -0.7
H     0.7    0.1   -1.1
H     0.6    1.0    0.4
H     0.5   -0.8    0.4
H     4.1   -0.1    1.6
H     2.6   -0.9    2.0
H     2.7    0.9    2.0
H     2.3   -2.1   -0.8
H     4.0   -1.7   -0.3
H     3.6   -1.1   -3.0
H     2.7    2.0   -0.7
