          14
 frame:         5763
C     2.4   -0.8   -0.1
N     3.3   -0.0    0.6
C     3.4    1.3    0.2
C     2.5    2.3    1.0
O     2.3    3.4    0.7
C     4.8    1.9    0.3
O     5.8    1.1    0.6
H     2.4   -1.9    0.2
H     2.5   -0.8   -1.2
H     1.3   -0.5    0.0
H     4.2   -0.5    0.6
H     3.2    1.5   -0.9
H     2.1    1.8    1.9
H     5.0    2.9    0.1
