          12
 frame:         4601
C     1.8   -0.4    0.0
O     1.0   -1.6    0.1
C    -0.1   -1.0   -0.6
C    -1.2   -0.4    0.3
N    -1.1    0.9    0.5
O     0.1    1.4   -0.2
C     0.8    0.3   -0.8
H     2.8   -0.6   -0.5
H     2.0    0.1    1.0
H    -0.4   -1.6   -1.4
H    -2.0   -0.9    0.7
H     1.0    0.6   -1.9
