          14
 frame:         2010
C     0.9    0.1   -0.1
C     2.1   -0.0   -0.0
C     3.6   -0.0    0.0
N     4.1   -1.2    0.7
C     4.7   -0.9    2.0
C     4.7    0.7    2.0
C     4.1    1.1    0.9
H    -0.1    0.1   -0.2
H     4.0    0.0   -1.0
H     4.9   -1.6    0.1
H     5.7   -1.3    2.2
H     4.0   -1.2    2.8
H     5.1    1.2    2.8
H     4.0    2.2    0.6
