          13
 frame:         5366
C     0.7    0.2   -0.1
C     2.0   -0.0   -0.0
N     2.7   -1.2    0.2
C     2.1   -2.5    0.2
N     2.7   -3.6    0.4
C     3.0    1.1   -0.0
O     4.2    1.0    0.1
H     0.4    1.3   -0.3
H    -0.1   -0.5   -0.1
H     3.7   -1.1    0.3
H     1.0   -2.5    0.1
H     3.7   -3.5    0.5
H     2.5    2.1   -0.2
