          17
 frame:         1789
C     0.9    0.0   -0.0
C     2.5   -0.0   -0.0
C     3.0    0.1   -1.5
C     3.0   -1.3    0.7
N     3.1   -0.8    2.1
N     3.4    0.5    2.1
C     3.0    1.0    0.9
H     0.6   -0.1    1.0
H     0.5   -0.8   -0.7
H     0.6    1.0   -0.4
H     4.1    0.1   -1.5
H     2.6    1.1   -1.9
H     2.6   -0.7   -2.1
H     4.0   -1.6    0.2
H     2.3   -2.1    0.6
H     3.8   -1.3    2.6
H     3.1    2.1    0.8
