          15
 frame:         6779
O     2.0   -0.1    1.4
C     2.7    0.1    0.4
N     2.8    1.3   -0.3
C     2.4    2.6    0.3
C     3.4    3.6   -0.2
C     4.5    2.6   -0.8
N     3.8    1.4   -1.3
H     3.3   -0.7   -0.1
H     2.4    2.4    1.4
H     1.3    2.8    0.0
H     3.0    4.2   -1.0
H     3.8    4.2    0.6
H     5.0    3.1   -1.6
H     5.2    2.3   -0.0
H     3.3    1.7   -2.2
