          19
 frame:         3308
C     0.9    0.1   -0.2
C     2.4    0.2    0.0
C     2.7    0.0    1.5
O     3.2   -0.5   -0.9
C     3.3    1.0   -0.9
C     2.8    1.7   -2.1
C     4.6    1.6   -0.4
H     0.7    0.2   -1.3
H     0.4    1.0    0.3
H     0.5   -0.8    0.1
H     3.8    0.0    1.7
H     2.3   -0.9    1.8
H     2.2    0.8    2.1
H     1.9    1.2   -2.5
H     3.6    1.6   -2.9
H     2.6    2.7   -1.9
H     5.0    1.0    0.5
H     4.5    2.6   -0.0
H     5.4    1.6   -1.2
