          17
 frame:          434
C     1.0    0.0    0.1
C     2.5   -0.1    0.0
C     2.9   -1.6    0.2
C     3.3    0.9   -0.1
C     4.8    0.9   -0.2
N     5.3    1.6   -1.4
H     0.7    1.1   -0.1
H     0.6   -0.3    1.0
H     0.5   -0.6   -0.7
H     2.4   -2.2   -0.5
H     2.7   -1.9    1.2
H     4.0   -1.7    0.1
H     2.8    1.9   -0.3
H     5.2   -0.1   -0.0
H     5.2    1.5    0.7
H     5.0    1.1   -2.2
H     6.3    1.7   -1.4
