          17
 frame:          356
C     0.9   -0.0    0.1
C     2.4    0.0   -0.0
C     2.8    0.0   -1.5
C     3.2    1.1    0.8
C     4.2   -0.0    1.2
N     3.1   -1.0    0.8
H     0.7   -0.1    1.2
H     0.5   -0.9   -0.3
H     0.4    0.8   -0.3
H     3.9    0.1   -1.6
H     2.4    0.9   -2.0
H     2.5   -0.9   -2.0
H     2.6    1.5    1.6
H     3.6    1.9    0.3
H     5.1   -0.0    0.7
H     4.4   -0.1    2.3
H     3.5   -1.8    0.2
