          16
 frame:         4565
C     1.7   -0.1   -0.0
C     0.9   -1.2    0.6
C    -0.4   -1.5   -0.3
C    -1.5   -0.4   -0.2
N    -1.4    0.8    0.1
O    -0.2    1.5    0.3
C     0.9    1.0   -0.6
H     2.4   -0.5   -0.8
H     2.4    0.3    0.8
H     1.4   -2.2    0.6
H     0.6   -1.0    1.6
H    -0.9   -2.4    0.0
H    -0.1   -1.6   -1.4
H    -2.5   -0.7   -0.3
H     1.5    1.9   -0.8
H     0.4    0.8   -1.6
