          19
 frame:         1341
C     2.1   -0.5    1.6
C     2.5    0.2    0.5
C     3.3    1.4    0.4
C     4.6    1.3   -0.3
C     5.4    2.6   -0.4
C     6.3    3.1    0.8
C     6.9    2.6   -0.5
H     1.6   -1.4    1.5
H     2.4   -0.1    2.6
H     2.3   -0.3   -0.5
H     3.5    1.8    1.4
H     2.7    2.2   -0.1
H     4.5    0.9   -1.3
H     5.3    0.6    0.2
H     4.9    3.4   -0.9
H     6.3    2.4    1.6
H     6.3    4.1    1.0
H     7.4    3.4   -1.1
H     7.4    1.6   -0.5
