          16
 frame:         5928
C     1.1   -0.3    0.0
O     2.5   -0.0    0.0
C     2.9    1.4   -0.0
C     2.4    2.1   -1.3
C     2.4    2.1    1.3
C     4.3    1.3    0.0
N     5.5    1.3    0.0
H     0.9   -1.4    0.0
H     0.6    0.1   -0.9
H     0.5    0.1    0.9
H     2.7    1.5   -2.2
H     2.9    3.1   -1.3
H     1.3    2.2   -1.3
H     2.7    1.6    2.2
H     1.3    2.2    1.3
H     2.9    3.1    1.3
