          13
 frame:          411
C     5.4   -2.1    0.0
C     4.6   -1.1    0.0
C     3.7    0.0    0.0
C     4.5    1.3    0.1
C     4.9    2.0   -1.1
N     3.7    2.5   -0.4
H     6.0   -2.9   -0.0
H     3.0   -0.1    0.9
H     3.1    0.0   -0.9
H     5.1    1.4    1.0
H     4.7    1.6   -2.1
H     5.8    2.6   -1.1
H     4.0    3.3    0.2
