          17
 frame:         4074
C     0.9   -0.1   -0.0
C     2.4   -0.1   -0.0
O     2.9   -0.9    1.0
C     3.0   -0.7   -1.3
O     2.5   -2.0   -1.5
C     2.9    1.4    0.1
C     3.9    1.8    0.9
H     0.5    0.6   -0.8
H     0.5    0.3    0.9
H     0.5   -1.1   -0.2
H     2.5   -0.7    1.9
H     4.1   -0.6   -1.3
H     2.6   -0.1   -2.2
H     2.8   -2.5   -0.7
H     2.4    2.1   -0.6
H     4.3    1.1    1.6
H     4.2    2.8    1.0
