          18
 frame:         2114
C     4.0   -1.5   -0.3
C     3.0   -0.5    0.1
C     1.7   -0.9    0.5
C     3.4    0.9    0.1
C     4.5    1.4   -0.2
C     4.9    2.9   -0.3
N     6.1    3.1    0.5
H     4.9   -1.5    0.4
H     4.3   -1.4   -1.3
H     3.6   -2.5   -0.2
H     1.4   -1.9    0.6
H     1.0   -0.1    0.8
H     2.6    1.6    0.4
H     5.4    0.7   -0.5
H     4.0    3.5    0.0
H     5.1    3.2   -1.3
H     5.9    3.0    1.5
H     6.4    4.1    0.5
