          14
 frame:          524
C     1.4    0.2    0.6
C     2.1   -0.1   -0.7
N     2.4   -1.3   -1.2
N     2.4    1.0   -1.5
C     3.5    1.1   -2.4
C     3.5    1.9   -1.2
H     2.1    0.8    1.2
H     1.3   -0.8    1.1
H     0.5    0.7    0.4
H     2.1   -2.0   -0.6
H     3.3    1.5   -3.4
H     4.1    0.2   -2.5
H     4.2    1.6   -0.4
H     3.2    3.0   -1.3
