          19
 frame:         3905
C     0.5    0.5    0.3
C     1.9    0.1   -0.1
C     2.9    1.2    0.1
O     4.2    0.8   -0.2
C     5.2    1.8   -0.1
C     6.5    1.2   -0.6
O     6.5    0.8   -1.9
H    -0.2   -0.3    0.1
H     0.1    1.3   -0.4
H     0.4    0.8    1.3
H     2.0   -0.3   -1.1
H     2.2   -0.8    0.6
H     2.9    1.6    1.2
H     2.6    2.1   -0.5
H     5.3    2.1    1.0
H     4.9    2.7   -0.7
H     6.8    0.3    0.1
H     7.3    2.0   -0.5
H     5.7    0.3   -2.0
