          19
 frame:         2743
C     1.2   -0.2    0.3
N     2.6    0.1    0.5
C     3.0    1.5    0.3
C     2.5    2.4    1.4
N     2.7    3.8    1.1
C     4.5    1.6    0.1
C     5.1    2.2   -0.9
H     1.1   -1.3    0.4
H     0.8    0.1   -0.7
H     0.6    0.2    1.1
H     3.2   -0.5   -0.1
H     2.5    1.9   -0.6
H     3.1    2.0    2.4
H     1.5    2.2    1.6
H     3.7    4.0    1.0
H     2.4    4.4    1.9
H     5.1    1.1    0.9
H     4.5    2.7   -1.7
H     6.2    2.3   -1.0
