          13
 frame:         1764
C     1.0   -0.0    0.1
C     2.5    0.1   -0.0
C     3.2    1.3   -0.1
C     4.6    1.2   -0.1
N     5.3    0.1   -0.1
C     4.5   -1.1   -0.1
N     3.2   -1.1   -0.1
H     0.6    1.0    0.1
H     0.7   -0.6    0.9
H     0.6   -0.6   -0.8
H     2.7    2.2   -0.0
H     5.2    2.1   -0.1
H     5.0   -2.0   -0.1
