          20
 frame:         1696
C     1.0    0.1    0.1
C     2.5    0.0   -0.0
C     3.0   -1.4   -0.6
C     2.7   -1.6   -2.0
C     3.2   -0.4   -2.9
C     2.7    0.9   -2.3
N     2.9    1.1   -0.9
H     0.7    1.0    0.5
H     0.6   -0.7    0.9
H     0.4   -0.1   -0.8
H     2.9    0.2    1.0
H     2.6   -2.2    0.1
H     4.1   -1.4   -0.4
H     3.1   -2.5   -2.4
H     1.6   -1.7   -2.2
H     4.3   -0.4   -2.9
H     2.9   -0.5   -3.9
H     3.1    1.8   -2.9
H     1.6    1.0   -2.5
H     4.0    1.3   -0.8
