          18
 frame:         5666
C     1.3    0.0   -0.8
N     2.8    0.0   -0.8
C     3.3    0.8    0.3
C     4.8    0.8    0.2
C     5.6    1.8   -0.7
C     5.7    2.0    0.8
O     6.8    1.8    1.5
H     0.9   -0.5   -1.6
H     0.9    1.1   -0.8
H     0.9   -0.4    0.1
H     3.1    0.3   -1.7
H     3.0    0.4    1.3
H     3.0    1.9    0.3
H     5.3   -0.1    0.3
H     5.0    2.6   -1.3
H     6.5    1.5   -1.2
H     5.1    2.8    1.2
H     7.2    0.9    1.2
