          12
 frame:         4988
C     1.0   -0.0    0.1
C     2.2   -0.1    0.0
C     3.6    0.0   -0.1
N     4.4   -1.1   -0.2
O     5.7   -0.7   -0.2
C     5.8    0.8   -0.3
C     4.4    1.3    0.0
H    -0.0   -0.0    0.1
H     6.2    1.0   -1.3
H     6.6    1.1    0.4
H     4.1    2.1   -0.7
H     4.4    1.7    1.0
