          15
 frame:         6351
N     1.2    0.1    0.5
C     2.3    0.2   -0.1
N     3.2    1.2    0.2
C     2.8    2.5    0.8
C     3.2    3.5   -0.3
C     4.5    2.8   -0.9
O     4.1    1.4   -0.9
H     0.7   -0.7    0.2
H     2.7   -0.5   -0.9
H     3.3    2.7    1.7
H     1.7    2.4    0.9
H     2.5    3.6   -1.1
H     3.4    4.5    0.1
H     4.7    3.1   -1.9
H     5.3    3.0   -0.2
