          16
 frame:          830
C     1.5    0.4   -0.8
C     2.8   -0.1   -0.2
O     3.9    0.7   -0.7
C     5.1    0.4   -0.3
C     6.1    1.4   -0.8
C     5.5   -0.7    0.5
H     0.7   -0.2   -0.5
H     1.5    0.5   -1.9
H     1.3    1.5   -0.4
H     3.0   -1.1   -0.6
H     2.8   -0.2    0.9
H     5.9    2.4   -0.4
H     6.1    1.4   -1.9
H     7.1    1.1   -0.5
H     4.7   -1.4    0.9
H     6.5   -0.9    0.7
