          15
 frame:         3091
C    -1.0   -0.1    1.1
C    -0.6    1.0    0.1
C     0.9    1.3    0.0
C     1.6   -0.0   -0.0
C     0.9   -1.2    0.0
C    -0.6   -1.0    0.0
O    -1.0    0.0   -1.0
H    -0.4   -0.1    2.1
H    -2.1   -0.1    1.3
H    -1.2    1.9   -0.0
H     1.1    1.9   -0.9
H     1.2    1.9    0.9
H     2.7   -0.0   -0.1
H     1.4   -2.2   -0.0
H    -1.1   -2.0   -0.1
