          15
 frame:         4528
O     2.7   -1.1    0.4
C     2.4    0.0   -0.4
C     3.0    1.2    0.3
O     2.5    1.3    1.7
C     4.5    1.2    0.4
C     5.2    1.3   -0.9
C     5.6    1.4   -2.0
H     2.2   -1.9    0.1
H     1.3    0.2   -0.5
H     2.9   -0.1   -1.4
H     2.7    2.1   -0.2
H     2.4    0.4    2.0
H     4.9    0.2    0.9
H     4.9    2.0    1.1
H     6.1    1.5   -3.0
