          18
 frame:         2475
C     1.5   -0.6    0.8
C     2.6   -0.1   -0.1
N     3.4   -1.1   -0.7
C     2.0    0.8   -1.2
C     2.0    0.5   -2.5
C     1.5    2.1   -0.9
C     1.6    2.8    0.3
H     0.9    0.2    1.2
H     1.9   -1.1    1.6
H     0.8   -1.2    0.2
H     3.3    0.6    0.5
H     2.8   -1.9   -1.1
H     3.9   -1.6    0.1
H     2.5   -0.5   -2.8
H     1.6    1.1   -3.3
H     1.0    2.7   -1.7
H     2.0    2.3    1.2
H     1.1    3.8    0.5
