          14
 frame:         6391
N     2.6   -1.3   -1.1
C     3.0   -0.5   -0.0
O     3.0   -0.8    1.1
C     3.5    0.9   -0.5
C     3.9    1.8    0.4
C     4.3    3.1    0.0
C     4.7    4.0    0.9
H     2.8   -1.1   -2.0
H     2.5   -2.3   -0.8
H     3.4    1.1   -1.6
H     3.9    1.5    1.4
H     4.3    3.4   -1.0
H     4.7    3.8    2.0
H     5.0    5.0    0.6
