          14
 frame:         6110
N     0.9   -0.0   -0.1
C     2.4   -0.0   -0.1
C     2.9    1.2    0.6
C     3.5    1.2    1.8
O     3.9    0.0    2.5
C     3.5   -1.1    1.8
C     2.9   -1.2    0.6
H     0.6   -0.8   -0.7
H     0.6    0.8   -0.7
H     2.8   -0.0   -1.1
H     2.7    2.2    0.1
H     3.9    2.0    2.3
H     3.9   -2.0    2.4
H     2.7   -2.2    0.2
