          17
 frame:         2549
C     1.9   -0.7    1.3
C     3.0   -0.2    0.4
N     3.4    1.0    0.6
N     4.3    1.5   -0.3
C     5.2    2.5    0.3
C     5.8    3.5   -0.7
C     4.7    4.0    0.3
H     2.2   -1.7    1.8
H     1.0   -1.0    0.7
H     1.6   -0.0    2.0
H     3.4   -0.8   -0.4
H     4.9    0.8   -0.8
H     5.8    2.3    1.1
H     5.5    3.4   -1.8
H     6.8    3.9   -0.5
H     4.9    4.6    1.1
H     3.7    4.1   -0.1
