          12
 frame:          534
C     1.1   -0.0   -0.1
N     2.6   -0.1   -0.0
C     3.3   -0.7   -1.1
C     3.3    0.8   -1.0
C     4.5    1.5   -0.5
N     5.4    2.0   -0.2
H     0.8    0.8    0.5
H     0.7   -0.9    0.4
H     0.7    0.1   -1.1
H     2.6   -1.1   -1.9
H     4.2   -1.3   -0.9
H     2.7    1.3   -1.7
