          19
 frame:         2396
C     1.1    0.1   -0.1
C     2.6   -0.2   -0.0
C     3.0   -1.6   -0.2
N     2.6   -2.4    1.0
C     3.4    0.9    0.2
C     4.9    0.8    0.3
N     5.5    1.7   -0.7
H     0.8    1.1    0.1
H     0.6   -0.6    0.6
H     0.7   -0.2   -1.1
H     4.1   -1.7   -0.4
H     2.5   -2.0   -1.1
H     3.1   -2.1    1.8
H     2.8   -3.4    0.8
H     3.0    1.9    0.3
H     5.3   -0.2    0.3
H     5.2    1.2    1.3
H     5.3    1.4   -1.6
H     6.5    1.8   -0.6
