          15
 frame:          442
C     1.0   -0.0   -0.0
C     2.4    0.0   -0.0
C     3.6    0.0    0.0
C     5.1    0.0   -0.0
C     5.6   -0.8   -1.2
N     5.6    1.4    0.1
H     0.6    1.0    0.0
H     0.6   -0.5    0.9
H     0.6   -0.5   -0.9
H     5.5   -0.5    0.9
H     5.3   -0.3   -2.2
H     5.3   -1.8   -1.2
H     6.7   -0.8   -1.2
H     5.2    1.9   -0.8
H     6.6    1.4   -0.0
