          16
 frame:         4652
C     1.0   -0.0    0.0
C     2.5    0.0    0.0
C     3.1    1.2    0.8
C     4.5    0.6    1.3
N     4.2   -0.8    1.4
C     3.1   -1.2    0.6
O     2.8   -2.4    0.5
H     0.6   -0.9   -0.4
H     0.5    0.8   -0.5
H     0.6   -0.0    1.1
H     2.8    0.1   -1.0
H     2.5    1.4    1.7
H     3.2    2.1    0.3
H     5.3    0.8    0.5
H     4.8    1.1    2.2
H     4.9   -1.5    1.7
