          13
 frame:         5890
C     2.9   -1.2   -0.3
O     2.2   -0.0    0.1
C     3.1    1.1    0.0
C     2.6    2.3    0.8
N     2.6    3.4    0.1
N     3.1    3.0   -1.3
C     3.3    1.8   -1.3
H     2.1   -2.0   -0.1
H     3.8   -1.4    0.2
H     3.1   -1.2   -1.4
H     4.1    0.9    0.5
H     2.3    2.3    1.8
H     3.7    1.3   -2.2
