          17
 frame:         2862
N     1.1    0.0    0.5
C     2.3    0.0    0.1
C     3.1   -1.3   -0.1
C     4.1   -1.3   -1.2
C     5.0   -0.1   -1.1
C     4.1    1.2   -1.2
N     3.1    1.2   -0.2
H     0.7    1.0    0.6
H     2.3   -2.1   -0.1
H     3.6   -1.4    0.9
H     4.7   -2.2   -1.2
H     3.5   -1.3   -2.2
H     5.5   -0.1   -0.2
H     5.7   -0.1   -2.0
H     4.8    2.1   -1.0
H     3.7    1.3   -2.2
H     2.5    2.0   -0.2
