          13
 frame:         6095
N     0.9    0.1    0.2
C     2.3    0.0    0.1
C     3.2    1.1   -0.1
O     3.0    2.5   -0.2
N     4.5    0.6   -0.1
C     4.5   -0.8   -0.0
C     3.1   -1.1    0.1
H     0.6    0.9   -0.3
H     0.5   -0.7   -0.1
H     2.7    2.8    0.6
H     5.3    1.2   -0.3
H     5.4   -1.4   -0.1
H     2.8   -2.2    0.2
