          12
 frame:         3037
N     1.0   -0.1    0.2
C     2.4   -0.1    0.0
N     3.1   -1.1   -0.1
C     3.0    1.2    0.1
C     2.5    2.4    0.6
C     4.4    1.3   -0.5
N     5.5    1.4   -0.9
H     0.5    0.7   -0.2
H     0.5   -0.9    0.0
H     2.6   -2.0   -0.1
H     1.5    2.3    1.0
H     3.1    3.3    0.6
