          16
 frame:         6299
N     1.0   -0.1   -0.0
C     2.5   -0.0    0.0
C     3.0    1.4   -0.0
C     2.4    2.2    1.2
O     1.0    2.5    1.1
C     4.4    1.4   -0.0
C     5.6    1.4    0.0
H     0.6   -1.0    0.2
H     0.7    0.1   -1.0
H     2.9   -0.6   -0.8
H     2.8   -0.5    0.9
H     2.6    1.9   -0.9
H     2.9    3.2    1.2
H     2.7    1.7    2.1
H     0.6    1.6    0.9
H     6.7    1.5    0.0
