          18
 frame:         2276
C     1.0   -0.2    0.0
C     2.5   -0.0    0.0
C     3.0    1.4    0.0
C     2.5    2.2   -1.2
N     2.6    2.2    1.2
C     4.5    1.4    0.0
C     5.7    1.4    0.0
H     0.8   -1.3    0.1
H     0.5    0.1   -0.9
H     0.5    0.2    0.9
H     3.0   -0.5   -0.9
H     3.0   -0.5    0.9
H     2.8    1.7   -2.2
H     2.9    3.2   -1.3
H     1.4    2.3   -1.2
H     2.9    1.8    2.0
H     1.5    2.2    1.2
H     6.8    1.4   -0.0
