          13
 frame:         5832
C     5.5   -0.9   -0.2
N     5.3    0.2   -0.8
N     4.7    1.1    0.0
C     4.5    2.3   -0.6
C     3.8    3.4    0.1
C     4.9    4.4    0.7
O     4.9    5.6    0.4
H     6.0   -1.7   -0.8
H     5.2   -1.1    0.8
H     4.9    2.4   -1.6
H     3.3    3.0    1.0
H     3.2    4.0   -0.5
H     5.6    3.9    1.4
