          17
 frame:         5070
C     1.8    0.6    1.4
C     2.3   -0.0    0.0
C     3.1   -1.3    0.0
C     2.2   -2.6   -0.1
N     3.1   -3.8   -0.0
N     1.9    0.6   -1.0
O     2.3   -0.1   -2.2
H     1.2    1.4    1.2
H     2.7    0.8    1.9
H     1.3   -0.2    1.9
H     3.7   -1.4    0.9
H     3.8   -1.3   -0.8
H     1.6   -2.5   -1.0
H     1.5   -2.6    0.8
H     3.7   -3.8   -0.8
H     2.5   -4.6   -0.0
H     1.9    0.6   -2.9
