          18
 frame:         5235
C     1.1    0.1   -0.3
C     2.5   -0.2   -0.1
C     2.9   -1.6   -0.1
O     2.4   -2.3    1.1
C     3.4    0.8    0.1
C     4.9    0.7    0.3
N     5.6    1.5   -0.7
H     0.8    1.2   -0.2
H     0.5   -0.5    0.4
H     0.7   -0.2   -1.3
H     4.0   -1.8   -0.2
H     2.4   -2.1   -1.0
H     2.8   -1.9    1.8
H     3.0    1.9    0.1
H     5.2   -0.3    0.4
H     5.1    1.2    1.3
H     5.5    1.1   -1.6
H     6.6    1.5   -0.5
