          17
 frame:         2202
C     1.0   -0.2   -0.2
C     2.4    0.1   -0.1
C     3.1    1.2    0.1
C     2.4    2.6    0.3
C     4.5    1.2    0.1
N     5.3    2.3    0.3
N     6.6    2.1    0.4
H     0.6   -0.9    0.5
H     0.7   -0.6   -1.2
H     0.4    0.8   -0.1
H     3.1   -0.8   -0.3
H     1.3    2.5    0.3
H     2.8    3.3   -0.4
H     2.7    3.0    1.3
H     5.0    0.2   -0.0
H     7.1    3.0    0.2
H     7.0    1.3   -0.1
