          13
 frame:         6896
C     2.5    0.4    1.0
C     2.1   -0.0   -0.5
C     2.4    1.4   -0.8
C     2.5    2.4   -1.8
S     3.1    3.9   -0.9
C     3.1    3.1    0.7
C     2.8    1.8    0.5
H     3.3   -0.2    1.4
H     1.6    0.3    1.7
H     1.0   -0.3   -0.6
H     2.7   -0.8   -0.9
H     2.3    2.5   -2.8
H     3.5    3.6    1.5
