          17
 frame:         3069
C     0.7    1.1   -0.4
C    -0.5    0.2    0.0
C     0.9   -0.4   -0.1
C     1.6   -0.9    1.1
C     1.5   -0.2    2.5
O     1.1   -1.4    3.1
C     1.1   -2.1    1.8
H     0.8    1.4   -1.4
H     1.1    1.8    0.4
H    -1.2   -0.0   -0.8
H    -0.9    0.3    1.0
H     1.0   -1.0   -1.0
H     2.7   -1.1    0.8
H     0.7    0.6    2.5
H     2.4    0.2    2.9
H     1.7   -3.0    1.9
H     0.0   -2.4    1.5
