          12
 frame:          801
C     1.0   -0.3    0.9
C     1.8   -0.3   -0.1
C     3.0    0.6   -0.2
O     4.2   -0.2   -0.5
C     5.3    0.4   -0.8
O     5.5    1.6   -0.9
H     0.1   -0.9    1.0
H     1.2    0.3    1.8
H     1.6   -0.9   -1.0
H     3.2    1.2    0.7
H     2.9    1.3   -1.1
H     6.1   -0.3   -1.0
