          14
 frame:         2978
N     1.0    0.1    0.0
C     2.4   -0.0   -0.0
C     3.0    1.4   -0.0
C     4.5    1.4    0.0
C     5.7    1.4    0.0
C     7.0    1.4    0.0
C     8.3    1.4    0.0
H     0.6   -0.9    0.2
H     0.6    0.3   -0.9
H     2.9   -0.6   -0.9
H     2.8   -0.5    0.9
H     2.6    1.9    0.9
H     2.6    2.0   -0.9
H     9.3    1.4    0.0
