          17
 frame:         4006
C     1.1    3.0    0.4
C     2.6    3.2    0.4
O     3.2    2.0    0.0
C     4.6    1.9   -0.0
C     5.5    2.9    0.2
C     6.9    2.7    0.1
C     7.9    3.6    0.3
H     0.7    4.0    0.7
H     0.8    2.3    1.2
H     0.8    2.7   -0.6
H     3.0    3.5    1.4
H     2.9    4.0   -0.3
H     4.9    0.9   -0.3
H     5.1    3.9    0.5
H     7.2    1.7   -0.2
H     7.6    4.7    0.6
H     8.9    3.4    0.2
