          16
 frame:         2697
C     1.0   -0.0   -0.1
N     2.4   -0.0    0.1
C     2.9    1.4    0.0
C     4.4    1.4    0.0
C     5.6    1.4   -0.0
C     7.0    1.4   -0.0
C     7.8    2.5   -0.1
H     0.6   -1.1   -0.1
H     0.6    0.5   -1.0
H     0.5    0.4    0.8
H     2.9   -0.6   -0.7
H     2.6    1.9    0.9
H     2.6    1.9   -0.9
H     7.5    0.5    0.0
H     7.4    3.5   -0.1
H     8.9    2.5   -0.1
