          12
 frame:         6090
N     1.0   -0.2   -0.2
C     2.4    0.0   -0.0
C     3.2    1.1    0.0
C     4.5    0.7    0.1
C     4.5   -0.7    0.0
O     5.4   -1.6    0.1
O     3.2   -1.1   -0.0
H     0.5    0.7   -0.4
H     0.6   -0.7    0.6
H     2.8    2.2    0.1
H     5.5    1.3    0.1
H     5.1   -2.4   -0.3
