          18
 frame:         2243
C     1.4    0.3    0.1
C     2.9   -0.0   -0.3
C     2.9   -0.7   -1.6
C     3.3   -2.0   -1.8
N     3.6    1.2   -0.3
C     4.2    1.7    0.9
C     5.1    1.1   -0.1
H     1.4    0.9    1.1
H     0.8   -0.6    0.2
H     0.9    1.0   -0.6
H     3.3   -0.7    0.5
H     2.6   -0.1   -2.4
H     3.6   -2.6   -0.9
H     3.3   -2.4   -2.8
H     4.0    1.1    1.8
H     4.2    2.8    1.1
H     5.7    1.7   -0.8
H     5.5    0.1    0.1
