          16
 frame:         2974
N     0.9   -0.1    0.0
C     2.4   -0.2   -0.0
C     2.9    1.3   -0.1
C     4.4    1.3   -0.0
C     5.2    1.8   -1.0
C     6.7    1.8   -0.9
C     7.9    1.9   -0.8
H     0.6   -1.1    0.2
H     0.6    0.2   -0.9
H     2.8   -0.8   -0.8
H     2.7   -0.6    0.9
H     2.5    1.9    0.7
H     2.6    1.7   -1.1
H     4.9    0.9    0.9
H     4.8    2.2   -1.9
H     8.9    2.0   -0.8
