          13
 frame:         4391
O     2.6   -1.1    0.0
C     2.1   -0.0    0.0
C     2.9    1.2    0.0
C     2.4    2.5   -0.0
C     3.5    3.4   -0.0
C     4.7    2.8    0.0
C     4.4    1.3    0.1
H     1.0    0.2   -0.0
H     1.3    2.8   -0.1
H     3.4    4.5   -0.1
H     5.7    3.2    0.0
H     4.9    0.8   -0.8
H     4.8    0.8    0.9
