          19
 frame:         4047
C     1.0   -0.2    0.2
C     2.5   -0.3    0.2
O     3.0   -1.4   -0.7
C     3.2    1.0   -0.0
C     4.8    1.0    0.1
C     5.3    0.5    1.4
O     5.3    0.2   -1.0
H     0.6    0.5    0.9
H     0.5   -1.2    0.3
H     0.7    0.2   -0.8
H     2.8   -0.8    1.2
H     2.6   -1.1   -1.6
H     2.8    1.7    0.7
H     2.9    1.4   -1.0
H     5.1    2.0   -0.1
H     5.0   -0.5    1.7
H     4.9    1.2    2.2
H     6.4    0.6    1.4
H     4.8   -0.7   -1.0
