          15
 frame:         2772
C     1.1   -0.3   -0.6
N     2.3    0.1    0.2
C     3.0    1.4   -0.0
N     2.5    2.5   -0.2
C     1.1    2.8   -0.0
C     4.4    1.2   -0.0
C     5.6    1.0   -0.0
H     0.9   -1.3   -0.3
H     1.3   -0.2   -1.6
H     0.2    0.3   -0.3
H     2.9   -0.6    0.4
H     0.9    3.9    0.2
H     0.6    2.2    0.8
H     0.5    2.5   -0.9
H     6.7    0.9   -0.0
