          18
 frame:         2850
N     1.0    0.0    0.0
C     2.4    0.0    0.0
C     3.0    1.1    0.9
C     4.5    0.7    1.2
C     4.3   -0.8    1.4
C     3.0   -1.2    0.7
C     2.5   -2.5    0.6
H     0.6   -0.8   -0.5
H     0.7    0.8   -0.5
H     2.9    0.1   -1.0
H     2.5    1.2    1.9
H     3.0    2.1    0.4
H     5.1    0.8    0.3
H     4.9    1.2    2.0
H     5.2   -1.4    1.1
H     4.1   -1.1    2.5
H     1.6   -2.7    0.0
H     3.0   -3.3    1.0
