          18
 frame:         6265
N     1.9   -0.3    1.7
C     2.1   -0.1    0.2
C     3.4    0.7   -0.1
C     4.7   -0.1    0.1
C     5.4   -0.5   -1.0
C     5.2   -0.4    1.4
O     4.5   -1.4    2.1
H     1.1   -1.0    1.9
H     1.7    0.5    2.2
H     1.2    0.5   -0.2
H     2.1   -1.1   -0.3
H     3.4    1.6    0.6
H     3.3    1.0   -1.1
H     5.0   -0.2   -2.0
H     6.3   -1.0   -1.0
H     5.2    0.6    2.0
H     6.2   -0.8    1.4
H     3.5   -1.1    2.1
