          20
 frame:         1941
C     2.1   -0.6   -1.3
C     2.4    0.0    0.0
C     3.3    1.3   -0.1
C     2.7    2.6   -0.6
C     3.3    3.3    0.6
C     4.6    4.1    0.3
N     3.5    2.0    1.2
H     1.4   -1.4   -1.2
H     3.0   -0.9   -1.9
H     1.5    0.2   -2.0
H     2.9   -0.7    0.7
H     1.4    0.3    0.6
H     4.2    1.0   -0.6
H     1.6    2.6   -0.6
H     3.0    2.9   -1.6
H     2.7    4.0    1.2
H     5.3    3.4   -0.3
H     5.2    4.3    1.2
H     4.4    5.0   -0.3
H     4.4    1.8    1.6
