          18
 frame:         2498
C     0.9   -0.2    0.3
C     2.4   -0.3    0.2
N     3.1    1.0    0.0
C     4.5    1.0   -0.0
C     5.1    2.4   -0.2
C     6.6    2.4   -0.3
C     7.8    2.4   -0.3
H     0.5   -1.1    0.3
H     0.5    0.4   -0.6
H     0.7    0.4    1.2
H     2.7   -0.9   -0.7
H     2.8   -0.9    1.0
H     2.8    1.6    0.8
H     4.8    0.3   -0.9
H     5.0    0.5    0.9
H     4.8    3.0    0.7
H     4.7    2.8   -1.1
H     8.9    2.3   -0.4
