          18
 frame:         2492
C     1.2   -0.2    0.1
C     2.7   -0.4   -0.0
N     3.4    0.7    0.6
C     4.9    0.6    0.6
C     5.5    1.9    1.1
C     5.3   -0.6    1.3
C     5.7   -1.6    2.0
H     0.6   -1.0   -0.4
H     0.9    0.8   -0.4
H     0.8   -0.1    1.1
H     3.0   -0.5   -1.1
H     2.9   -1.4    0.5
H     3.1    0.8    1.6
H     5.2    0.4   -0.5
H     5.2    2.0    2.1
H     5.2    2.7    0.5
H     6.6    1.8    1.1
H     6.0   -2.5    2.6
