          16
 frame:          729
C     1.1    0.1    0.0
C     2.6   -0.1   -0.1
C     3.0   -0.9   -1.3
C     3.3    1.2   -0.1
C     3.9    1.8    1.2
O     4.8    1.2    0.2
H     0.8    0.7    1.0
H     0.5   -0.8    0.0
H     0.7    0.7   -0.8
H     2.9   -0.7    0.8
H     2.6   -0.4   -2.2
H     2.5   -1.9   -1.3
H     4.0   -1.1   -1.4
H     3.1    1.9   -0.9
H     3.7    1.3    2.1
H     4.0    2.9    1.2
