          16
 frame:          750
C     1.0   -0.0   -0.0
C     2.5   -0.0    0.0
C     3.0   -0.7    1.3
C     3.1   -0.7   -1.2
C     3.0    1.4   -0.0
O     3.7    2.0    0.8
H     0.6    0.5   -0.9
H     0.6    0.5    0.8
H     0.6   -1.0   -0.1
H     2.6   -0.2    2.2
H     4.1   -0.7    1.4
H     2.7   -1.8    1.4
H     2.8   -0.2   -2.1
H     2.7   -1.8   -1.3
H     4.2   -0.8   -1.2
H     2.7    2.0   -0.9
