          12
 frame:         6189
N     1.0    0.1    0.0
C     2.1   -0.0    0.0
C     3.5   -0.0   -0.0
C     4.3   -1.1   -0.1
C     5.8   -0.7   -0.0
O     5.8    0.8   -0.0
C     4.4    1.2    0.1
H     4.0   -2.1   -0.1
H     6.3   -1.1    0.9
H     6.3   -1.0   -0.9
H     4.2    1.9   -0.8
H     4.2    1.8    1.0
