          15
 frame:         3609
C     0.9   -0.0    0.1
C     2.4   -0.0    0.1
C     3.1    1.0   -0.2
C     4.6    1.1   -0.1
C     5.8    1.1   -0.0
C     7.2    1.2    0.0
O     7.7    2.5   -0.0
H     0.5   -0.8   -0.6
H     0.5    0.9   -0.3
H     0.4   -0.2    1.0
H     2.9   -0.9    0.5
H     2.7    1.9   -0.6
H     7.7    0.6   -0.8
H     7.6    0.8    0.9
H     7.3    3.0   -0.8
