          17
 frame:         2819
N     0.8   -0.2   -0.0
C     2.2   -0.1    0.2
C     3.2   -0.9   -0.6
C     2.7   -1.5   -1.9
C     2.8   -0.3   -2.9
N     2.6    0.9   -2.0
C     3.2    0.6   -0.7
H     0.7    0.3   -0.9
H     0.3    0.4    0.7
H     2.5   -0.1    1.3
H     4.0   -1.4   -0.1
H     3.3   -2.3   -2.3
H     1.6   -1.8   -1.9
H     3.8   -0.2   -3.4
H     2.1   -0.3   -3.7
H     2.9    1.8   -2.4
H     4.0    1.2   -0.4
