          13
 frame:         4868
C     1.1    0.1    0.0
C     2.6    0.1    0.0
C     3.5    1.2   -0.0
C     3.3    2.7    0.0
N     4.8    0.6   -0.0
N     4.8   -0.6   -0.0
O     3.3   -1.0   -0.0
H     0.8   -0.9   -0.0
H     0.7    0.6   -0.9
H     0.7    0.6    0.9
H     2.2    2.9   -0.0
H     3.8    3.1   -0.9
H     3.7    3.1    0.9
