          18
 frame:         2807
N     1.5   -0.4   -0.5
C     2.8    0.0    0.0
C     3.6   -1.0    0.7
C     4.1   -0.5   -0.7
C     5.1    0.7   -0.7
C     4.3    1.9   -0.3
C     3.0    1.5    0.5
H     1.2    0.2   -1.2
H     0.8   -0.4    0.3
H     3.3   -2.1    0.7
H     4.2   -0.8    1.6
H     4.0   -1.1   -1.5
H     5.9    0.5    0.1
H     5.6    0.7   -1.6
H     4.8    2.7    0.1
H     3.9    2.4   -1.3
H     3.2    1.5    1.6
H     2.2    2.1    0.3
