          14
 frame:         5482
C     0.8   -0.2   -0.1
C     2.4   -0.0    0.1
O     3.1   -0.8   -0.9
C     2.7    1.4    0.0
C     3.3    2.1    1.0
C     3.7    3.5    1.0
N     4.0    4.6    0.9
H     0.3    0.3    0.7
H     0.6   -1.3   -0.1
H     0.5    0.2   -1.1
H     2.6   -0.4    1.1
H     2.8   -0.6   -1.8
H     2.5    2.0   -0.9
H     3.5    1.6    2.0
