          12
 frame:         4689
C     1.0    0.0    0.0
C     2.5   -0.0    0.0
N     3.2    1.1    0.0
O     4.6    0.6    0.0
C     4.6   -0.7    0.0
O     5.8   -1.2    0.0
C     3.3   -1.2    0.0
H     0.5   -1.0   -0.0
H     0.6    0.6   -0.9
H     0.6    0.6    0.9
H     5.7   -2.2    0.0
H     3.0   -2.2    0.0
