          19
 frame:         1418
C     0.9   -0.1   -0.2
C     2.4   -0.1   -0.1
C     3.0   -1.5   -0.2
C     3.1    1.0    0.2
C     2.5    2.4    0.3
C     4.6    1.0    0.4
C     5.4    2.0    0.6
H     0.4    0.9   -0.2
H     0.4   -0.7    0.5
H     0.6   -0.6   -1.2
H     2.5   -2.2    0.5
H     4.0   -1.6    0.0
H     2.8   -1.9   -1.2
H     1.4    2.4    0.2
H     3.0    3.1   -0.4
H     2.7    2.9    1.3
H     5.0   -0.0    0.3
H     5.0    3.0    0.7
H     6.5    1.9    0.8
