          17
 frame:         3162
C     0.9   -0.5    0.0
C     2.4   -0.5   -0.3
C     2.9   -0.2   -1.7
C     3.1    0.8   -0.6
C     4.5    1.1   -0.1
C     5.2    2.2   -0.7
O     4.8    2.9   -1.6
H     0.7   -0.3    1.1
H     0.5   -1.5   -0.2
H     0.4    0.3   -0.6
H     3.0   -1.2    0.3
H     2.1    0.1   -2.5
H     3.8   -0.7   -2.0
H     2.5    1.7   -0.7
H     5.1    0.2   -0.1
H     4.4    1.4    1.0
H     6.3    2.4   -0.4
