          18
 frame:         6261
N     3.8   -1.1   -0.2
C     2.6   -0.2   -0.1
C     3.0    1.2   -0.0
C     4.2    1.7   -0.0
C     4.5    3.2    0.1
C     5.0    3.7   -1.3
O     4.0    3.6   -2.3
H     3.5   -2.1   -0.4
H     4.3   -1.1    0.7
H     1.9   -0.5    0.7
H     2.0   -0.4   -1.1
H     2.1    1.9    0.1
H     5.1    1.0   -0.2
H     5.3    3.4    0.8
H     3.6    3.8    0.4
H     6.0    3.2   -1.6
H     5.3    4.8   -1.2
H     3.7    2.7   -2.3
