          15
 frame:         6219
N     2.4   -0.4   -1.6
C     2.4    0.0   -0.2
C     3.4    1.2   -0.0
C     3.5    1.8    1.4
O     3.2    3.2    1.4
N     2.8    3.5    0.1
C     2.9    2.5   -0.7
H     1.6   -1.1   -1.7
H     3.3   -0.9   -1.9
H     2.8   -0.8    0.5
H     1.4    0.3    0.1
H     4.3    1.0   -0.4
H     4.5    1.6    1.9
H     2.7    1.3    2.1
H     2.6    2.6   -1.7
