          19
 frame:         2329
C     1.5   -0.2   -1.3
C     2.2    0.2   -0.0
C     2.6    1.7    0.0
C     1.5    2.7    0.1
N     3.9    1.9    0.0
N     4.3    3.3    0.1
C     5.6    3.5   -0.3
H     1.2   -1.2   -1.3
H     2.1   -0.0   -2.2
H     0.6    0.4   -1.4
H     3.1   -0.4    0.1
H     1.6   -0.0    0.8
H     0.5    2.3    0.2
H     1.5    3.4   -0.8
H     1.7    3.4    1.0
H     3.6    3.9   -0.2
H     6.3    2.9    0.3
H     5.9    4.5   -0.1
H     5.8    3.3   -1.4
