          13
 frame:         2016
C     3.0   -1.2    0.4
C     2.5   -0.0    0.1
C     3.1    1.3    0.1
N     2.5    2.4   -0.2
C     3.5    3.4   -0.2
C     4.7    2.8    0.1
N     4.5    1.5    0.2
H     2.4   -2.1    0.4
H     4.1   -1.4    0.5
H     1.4    0.0   -0.0
H     3.2    4.4   -0.3
H     5.7    3.2    0.1
H     5.2    0.8    0.4
