          17
 frame:         3992
C     1.0   -0.0   -0.5
C     2.5    0.2   -0.3
O     3.2   -0.5   -1.4
C     3.0    1.6   -0.2
C     2.1    2.7   -0.3
C     4.4    1.9    0.2
C     5.4    1.0    0.3
H     0.5    0.3    0.4
H     0.8   -1.1   -0.5
H     0.6    0.5   -1.3
H     2.9   -0.4    0.6
H     3.1    0.1   -2.2
H     1.1    2.5   -0.6
H     2.5    3.7   -0.2
H     4.6    3.0    0.3
H     5.2   -0.1    0.2
H     6.4    1.3    0.6
