          12
 frame:         6998
C     2.7   -1.3    0.4
C     2.3   -0.0    0.2
C     3.1    1.2    0.1
C     2.6    2.5   -0.2
N     3.5    3.5   -0.2
C     4.7    3.0    0.1
S     4.8    1.3    0.3
H     2.0   -2.1    0.5
H     3.8   -1.5    0.6
H     1.2    0.1   -0.0
H     1.6    2.7   -0.4
H     5.6    3.6    0.1
