          19
 frame:         3562
C     1.1    0.2    0.2
C     2.5   -0.0   -0.1
C     2.8   -0.7   -1.5
C     3.3    1.3   -0.0
O     2.9    2.3   -1.0
C     3.7    1.8    1.3
C     4.8    1.3    0.3
H     0.9    0.6    1.2
H     0.5   -0.8    0.1
H     0.6    0.8   -0.6
H     3.0   -0.7    0.7
H     2.4   -0.1   -2.3
H     2.3   -1.7   -1.5
H     3.8   -0.9   -1.7
H     3.2    2.0   -1.9
H     3.5    1.2    2.2
H     3.7    2.9    1.4
H     5.4    2.0   -0.1
H     5.2    0.3    0.6
