          21
 frame:         1500
C     0.8    1.0   -1.3
C     2.4    1.0   -1.3
C     2.9    1.7   -0.0
C     4.4    1.7    0.0
C     5.3    2.7    0.0
C     4.8    4.2    0.0
C     6.8    2.5    0.1
H     0.5    0.6   -2.3
H     0.4    2.0   -1.3
H     0.4    0.4   -0.5
H     2.8    1.6   -2.2
H     2.8    0.0   -1.4
H     2.5    1.1    0.8
H     2.5    2.7    0.1
H     4.9    0.7    0.0
H     3.8    4.3   -0.0
H     5.3    4.7   -0.8
H     5.2    4.7    0.9
H     7.0    1.4    0.1
H     7.2    3.0    0.9
H     7.2    3.0   -0.8
