          13
 frame:         3659
C     1.0   -0.0   -0.0
C     2.4   -0.0   -0.0
C     3.6   -0.0   -0.0
C     5.0   -0.0    0.0
C     6.2   -0.0    0.0
C     7.7    0.0   -0.0
O     8.2    1.3   -0.0
H     0.6    1.0    0.0
H     0.6   -0.5    0.9
H     0.6   -0.5   -0.9
H     8.0   -0.6   -0.9
H     8.1   -0.5    0.9
H     7.7    1.8   -0.7
