          12
 frame:         6490
O     1.4   -0.0    1.2
C     2.3   -0.0    0.4
C     3.2    1.1   -0.2
C     4.2   -0.0   -0.6
C     3.2   -1.1   -0.2
C     4.6    0.0   -2.0
N     4.9    0.1   -3.2
H     3.6    1.9    0.5
H     2.7    1.6   -1.0
H     5.1   -0.0   -0.0
H     2.7   -1.6   -1.1
H     3.5   -1.9    0.4
