          16
 frame:         2841
N     1.0   -0.0    0.1
C     2.4    0.0    0.0
C     3.1    1.1    0.9
C     4.2    0.0    1.3
C     3.2   -1.1    0.8
C     3.6   -2.3    0.2
C     4.0   -3.2   -0.4
H     0.6   -0.8   -0.5
H     0.6    0.8   -0.3
H     2.9    0.1   -1.0
H     2.5    1.3    1.8
H     3.5    2.0    0.4
H     5.0    0.1    0.6
H     4.5   -0.0    2.3
H     2.5   -1.3    1.7
H     4.4   -4.1   -0.9
