          15
 frame:         4416
O     2.2   -0.4    1.4
C     2.5   -0.1    0.1
C     3.0    1.3    0.0
C     4.2    1.8   -0.5
C     4.2    3.3   -0.3
O     3.1    3.7    0.4
C     2.3    2.5    0.6
H     1.7   -1.3    1.4
H     1.6   -0.1   -0.6
H     3.2   -0.7   -0.4
H     4.9    1.2   -1.0
H     5.2    3.6    0.2
H     4.3    3.8   -1.3
H     1.3    2.6    0.2
H     2.1    2.4    1.7
