          14
 frame:         5095
C     1.1   -0.1    0.6
C     2.5    0.0   -0.0
C     2.5   -0.5   -1.5
C     3.9   -0.8   -2.0
O     4.9   -0.9   -1.4
C     3.0    1.4    0.0
N     3.3    2.5    0.1
H     1.1    0.3    1.7
H     0.8   -1.1    0.7
H     0.4    0.5    0.1
H     3.2   -0.6    0.6
H     2.0    0.2   -2.1
H     1.9   -1.4   -1.5
H     3.9   -1.1   -3.1
