          14
 frame:          806
C     1.0    0.0   -0.1
C     2.5   -0.0    0.1
C     3.0   -0.8    1.3
O     3.2   -0.7   -1.1
C     3.0    1.5    0.1
O     3.1    2.1    1.1
H     0.7    0.6   -1.0
H     0.5    0.5    0.8
H     0.7   -1.0   -0.2
H     2.7   -0.2    2.2
H     4.1   -0.8    1.3
H     2.6   -1.8    1.3
H     2.7   -0.4   -1.9
H     3.2    1.9   -0.9
