          17
 frame:         3077
C    -1.7    0.7    0.2
C    -1.6   -0.8   -0.4
C    -0.2   -0.8    0.1
O     1.1   -1.2   -0.4
C     2.0   -0.2    0.0
C     1.2    1.1    0.6
C    -0.1    0.7   -0.1
H    -2.3    1.4   -0.2
H    -1.9    0.7    1.3
H    -1.7   -0.7   -1.5
H    -2.3   -1.5    0.0
H    -0.2   -1.0    1.2
H     2.7   -0.6    0.8
H     2.6    0.1   -0.9
H     1.2    1.1    1.6
H     1.7    2.0    0.2
H    -0.1    0.9   -1.1
