          14
 frame:         5273
C     1.0   -0.4   -0.0
C     2.5    0.1    0.0
C     2.6    1.6    0.2
O     1.6    2.4    0.3
C     3.9    2.2    0.3
N     5.0    1.4    0.2
O     6.2    2.2    0.3
H     1.0   -1.5   -0.2
H     0.5    0.1   -0.9
H     0.5   -0.1    0.9
H     3.0   -0.2   -0.9
H     3.0   -0.4    0.8
H     4.0    3.3    0.4
H     6.8    1.5    0.2
