          15
 frame:         6446
N     0.8    0.8   -0.7
N     2.1    0.8   -0.8
C     2.9    1.4   -0.0
C     4.4    1.2   -0.2
O     4.7    0.4   -1.3
C     5.0    2.6   -0.2
C     5.8    3.0   -1.2
H     0.3    0.6   -1.6
H     0.4    1.6   -0.2
H     2.5    2.0    0.8
H     4.8    0.7    0.8
H     3.9    0.1   -1.6
H     4.9    3.2    0.7
H     6.0    2.4   -2.1
H     6.2    4.0   -1.2
