          15
 frame:         1345
C     0.9    0.1   -0.2
C     2.2    0.2    0.2
C     3.1    1.3    0.1
C     3.8    2.2    0.0
C     4.7    3.4   -0.0
C     4.7    4.3   -1.2
C     4.2    4.8    0.1
H     0.3   -0.8   -0.1
H     0.4    1.0   -0.7
H     2.6   -0.7    0.6
H     5.7    3.2    0.4
H     3.9    4.1   -2.0
H     5.6    4.7   -1.6
H     4.8    5.5    0.7
H     3.1    4.9    0.3
