          17
 frame:         3926
C     1.1   -0.3    0.3
C     2.5    0.0   -0.3
C     2.8   -0.8   -1.6
O     4.1   -0.7   -2.0
C     2.6    1.5   -0.6
C     4.0    2.0   -1.0
O     4.3    2.6   -2.0
H     1.0    0.2    1.2
H     1.1   -1.4    0.5
H     0.3   -0.1   -0.4
H     3.3   -0.2    0.4
H     2.0   -0.6   -2.3
H     2.7   -1.9   -1.3
H     4.1    0.1   -2.7
H     2.4    2.1    0.3
H     1.9    1.8   -1.4
H     4.8    1.8   -0.2
