          14
 frame:         6016
C     2.8   -1.1   -0.3
O     3.9   -0.4    0.2
N     3.8    0.9   -0.0
C     4.8    1.6    0.4
C     4.8    3.0    0.2
C     5.6    3.9    1.2
O     6.1    3.6   -0.1
H     2.9   -2.1   -0.1
H     2.7   -0.9   -1.4
H     1.8   -0.7    0.1
H     5.6    1.1    0.9
H     4.0    3.5   -0.3
H     6.1    3.4    2.0
H     5.3    4.9    1.4
