          14
 frame:         6543
O     0.9    0.1   -0.4
C     2.3    0.0    0.1
C     3.1    1.3   -0.2
C     3.5    1.2   -1.7
O     4.4    0.1   -1.9
N     4.0   -1.1   -1.4
C     3.0   -1.1   -0.6
H     0.4    0.7    0.2
H     2.3   -0.1    1.2
H     2.5    2.2   -0.1
H     4.0    1.4    0.4
H     4.1    2.1   -2.0
H     2.7    1.1   -2.4
H     2.6   -2.1   -0.3
