          20
 frame:         2378
C     2.8   -0.9   -1.1
C     2.6   -0.2    0.2
C     3.2    1.2    0.3
N     2.8    1.8    1.6
C     3.1    3.3    1.7
C     4.7    1.2    0.2
C     5.5    1.9   -0.7
H     2.4   -1.9   -1.1
H     3.9   -1.0   -1.4
H     2.4   -0.3   -1.9
H     3.0   -0.8    1.0
H     1.6   -0.1    0.5
H     2.8    1.8   -0.5
H     3.2    1.3    2.4
H     2.6    3.8    0.9
H     4.2    3.5    1.6
H     2.8    3.6    2.7
H     5.3    0.5    0.9
H     5.0    2.6   -1.4
H     6.5    1.9   -0.7
