          14
 frame:         6617
O     2.9   -0.7   -1.2
C     2.3    0.0   -0.1
C     2.8    1.4   -0.1
C     2.1    2.6    0.2
C     3.0    3.7    0.1
C     4.3    3.1   -0.1
N     4.1    1.7   -0.2
H     2.7   -1.6   -1.1
H     2.5   -0.5    0.9
H     1.2    0.0   -0.2
H     1.0    2.7    0.3
H     2.8    4.7    0.3
H     5.2    3.5   -0.2
H     4.8    1.1   -0.5
