          12
 frame:         6584
O     0.9    0.0   -0.3
C     2.0   -0.0   -0.1
C     2.9    1.2    0.0
O     4.2    1.0    0.6
N     5.0   -0.1    0.0
C     4.3   -1.1   -0.2
C     2.8   -1.3    0.1
H     2.4    2.0    0.6
H     3.1    1.6   -1.0
H     4.8   -1.9   -0.7
H     2.4   -2.1   -0.4
H     2.8   -1.5    1.2
