          12
 frame:         6608
O     1.3    0.1    0.7
C     2.4   -0.0    0.1
N     2.8   -1.2   -0.6
O     4.3   -1.2   -0.7
C     4.6    0.2   -0.7
C     3.9    1.2   -1.6
C     3.5    1.0   -0.1
H     2.6   -2.1   -0.2
H     5.7    0.3   -0.4
H     4.5    2.1   -1.8
H     3.3    0.8   -2.4
H     3.5    1.8    0.6
