          16
 frame:         2576
C     1.0   -0.0   -0.6
N     2.1   -0.0    0.3
C     3.4    0.7   -0.1
C     3.6    1.2   -1.5
C     3.7   -0.1   -2.3
C     3.6   -1.2   -1.5
C     3.4   -0.8   -0.1
H     0.4    0.9   -0.4
H     0.3   -0.9   -0.4
H     1.2   -0.0   -1.7
H     3.8    1.3    0.8
H     4.5    1.8   -1.6
H     2.8    1.9   -1.9
H     3.8   -0.1   -3.4
H     3.6   -2.2   -1.8
H     3.8   -1.4    0.8
