          15
 frame:         4309
O     1.0    0.1   -0.1
C     2.4    0.0   -0.0
C     3.1    1.1    0.9
C     4.1   -0.0    1.4
C     3.1   -1.1    0.8
C     3.6   -2.3    0.2
O     3.4   -2.6   -1.0
H     0.7   -0.5   -0.8
H     2.9    0.0   -1.0
H     2.4    1.3    1.7
H     3.5    2.0    0.5
H     5.0   -0.0    0.8
H     4.3   -0.1    2.5
H     2.4   -1.4    1.7
H     4.2   -3.0    0.8
