          13
 frame:         3655
C     1.0    0.1    0.0
C     2.4   -0.0   -0.0
C     3.6   -0.1   -0.0
C     5.0   -0.1   -0.0
C     5.8   -1.2   -0.0
C     5.8    1.2    0.0
O     5.2    2.3    0.1
H     0.6    1.1    0.0
H     0.5   -0.5    0.9
H     0.5   -0.4   -0.9
H     5.4   -2.2   -0.1
H     6.9   -1.1   -0.0
H     6.9    1.1    0.0
