          16
 frame:         5594
C     0.9   -0.1    0.2
N     2.4   -0.0    0.1
C     3.1    1.1    0.8
C     4.2    0.1    1.2
C     3.2   -1.1    0.8
C     3.7   -2.2    0.0
O     4.0   -3.3    0.4
H     0.6   -1.0   -0.3
H     0.5    0.8   -0.3
H     0.6   -0.1    1.2
H     2.5    1.4    1.8
H     3.3    1.9    0.2
H     5.0    0.1    0.5
H     4.6    0.0    2.2
H     2.7   -1.4    1.8
H     3.8   -1.9   -1.1
