          19
 frame:         4100
C     2.3   -0.7   -0.9
O     1.9    0.5   -0.2
C     3.1    1.3   -0.1
C     3.4    2.4   -1.1
C     2.5    2.5   -2.4
C     2.8    2.8    0.2
C     3.6    3.5    1.2
H     1.3   -1.3   -0.9
H     3.0   -1.3   -0.4
H     2.6   -0.5   -1.9
H     3.9    0.8    0.4
H     4.5    2.6   -1.3
H     1.5    2.1   -2.2
H     3.0    1.9   -3.2
H     2.5    3.5   -2.7
H     1.8    3.0    0.2
H     4.7    3.2    1.2
H     3.3    3.4    2.2
H     3.6    4.6    1.0
