          15
 frame:         3380
C     1.0   -0.1    0.0
C     2.5    0.1   -0.1
O     3.1   -0.3   -1.4
C     3.1    1.1   -1.0
C     4.4    1.8   -0.7
C     5.1    2.2   -1.9
C     5.7    2.6   -2.9
H     0.6    0.4    0.9
H     0.8   -1.2    0.2
H     0.5    0.2   -0.9
H     3.1   -0.2    0.8
H     2.4    1.7   -1.6
H     5.0    1.0   -0.2
H     4.2    2.6   -0.0
H     6.1    3.0   -3.8
