          17
 frame:         2547
C     1.4    2.5    0.3
C     2.9    2.2    0.6
N     3.5    1.3   -0.1
N     4.8    1.0    0.1
C     5.8    1.9    0.7
C     6.8    1.2   -0.2
C     5.7    0.5   -1.0
H     0.8    2.3    1.2
H     1.0    1.9   -0.5
H     1.3    3.5    0.1
H     3.4    2.7    1.4
H     5.9    1.9    1.8
H     5.6    2.9    0.3
H     7.5    1.8   -0.8
H     7.4    0.4    0.4
H     5.4    1.1   -1.9
H     5.7   -0.6   -1.1
