          15
 frame:         1976
C     1.7   -0.6   -1.0
C     2.0    0.2   -0.1
C     3.1    1.2   -0.1
C     3.7    1.6   -1.5
N     4.0    3.1   -1.4
C     3.4    3.5   -0.3
N     2.7    2.6    0.4
H     0.9   -1.4   -0.9
H     2.2   -0.7   -2.0
H     1.4    0.2    0.9
H     3.9    0.8    0.5
H     2.9    1.5   -2.3
H     4.5    1.1   -1.8
H     3.4    4.5   -0.0
H     2.7    2.7    1.4
