          17
 frame:         3315
C     0.8    0.1    0.2
C     2.3    0.1    0.0
C     3.2    1.0    0.9
O     4.0   -0.1    1.4
C     3.1   -1.1    0.8
C     3.8   -2.1   -0.1
C     5.1   -2.1   -0.3
H     0.3   -0.8   -0.4
H     0.4    1.0   -0.3
H     0.5    0.0    1.2
H     2.6    0.1   -1.0
H     2.6    1.5    1.7
H     3.8    1.8    0.3
H     2.5   -1.5    1.6
H     3.1   -2.9   -0.5
H     5.8   -1.4    0.1
H     5.6   -2.9   -0.9
