          14
 frame:         6005
C     1.8   -0.7   -0.7
O     3.0   -0.0   -1.3
C     3.5    1.0   -0.5
O     3.1    1.3    0.6
N     4.5    1.6   -1.2
C     5.8    0.9   -1.6
C     5.8    2.0   -0.5
H     1.6   -1.5   -1.4
H     1.0    0.1   -0.6
H     2.1   -1.1    0.3
H     6.2    1.1   -2.6
H     5.9   -0.1   -1.3
H     5.9    1.6    0.5
H     6.1    3.0   -0.8
