          17
 frame:         1608
C    -1.2   -0.7   -0.5
N    -1.2    0.8   -0.5
C    -0.0    1.1    0.3
C     1.2    0.7   -0.5
N     1.2   -0.8   -0.5
C     0.0   -1.1    0.3
C    -0.0   -0.0    1.4
H    -1.1   -1.1   -1.6
H    -2.1   -1.1   -0.1
H    -2.0    1.1   -0.0
H    -0.1    2.1    0.7
H     2.1    1.1   -0.1
H     1.1    1.1   -1.5
H     2.0   -1.1    0.0
H     0.0   -2.1    0.7
H    -0.9    0.0    2.0
H     0.9   -0.0    2.0
