          15
 frame:         6273
N     1.6   -0.3    0.9
C     2.9    0.1    0.2
C     2.9    1.5   -0.1
C     2.0    2.4    0.3
C     4.1    1.9   -1.0
N     4.6    3.2   -0.9
O     4.5    1.1   -1.9
H     1.7   -1.3    1.3
H     0.8   -0.3    0.3
H     3.0   -0.5   -0.7
H     3.7   -0.2    0.8
H     1.2    2.1    0.9
H     2.1    3.5   -0.0
H     4.4    3.7   -0.1
H     5.4    3.4   -1.4
