          16
 frame:         5283
C     1.1    0.2    0.8
C     2.4    0.7    0.2
C     2.7    0.1   -1.2
O     2.0   -0.9   -1.7
N     3.8    0.6   -1.9
C     3.9    2.0   -2.4
C     3.9    0.8   -3.3
H     0.9    0.6    1.8
H     1.1   -0.9    0.8
H     0.2    0.5    0.1
H     3.2    0.4    0.8
H     2.4    1.8    0.1
H     4.8    2.5   -2.2
H     2.9    2.5   -2.4
H     3.0    0.5   -3.9
H     4.8    0.4   -3.8
