          12
 frame:         2567
C     0.8    0.2   -0.0
C     2.3    0.0   -0.1
N     3.1    0.9    0.4
N     4.5    0.6    0.2
C     5.2    1.5    0.7
C     6.6    1.4    0.6
N     7.8    1.3    0.6
H     0.4   -0.7    0.5
H     0.4    0.2   -1.0
H     0.6    1.1    0.5
H     2.8   -0.8   -0.6
H     4.8    2.4    1.2
