          19
 frame:         3646
C     0.9   -0.0    0.0
C     2.4   -0.2   -0.2
C     2.7   -1.0   -1.5
C     3.0    1.2   -0.3
C     4.6    1.2   -0.2
C     5.2    2.6   -0.3
O     5.2    0.2    0.1
H     0.7    0.5    1.0
H     0.4   -1.0    0.1
H     0.4    0.5   -0.8
H     2.8   -0.7    0.6
H     2.2   -0.5   -2.4
H     2.2   -2.0   -1.4
H     3.8   -1.1   -1.6
H     2.7    1.9    0.5
H     2.8    1.7   -1.2
H     4.9    3.1   -1.2
H     6.3    2.5   -0.4
H     5.0    3.2    0.6
