          15
 frame:         1314
C     1.5   -0.5   -1.1
C     2.1    0.1   -0.0
C     3.2    1.1   -0.0
C     2.8    2.5    0.6
C     3.1    3.4   -0.3
C     3.7    2.9   -1.5
C     3.8    1.5   -1.4
H     0.7   -1.2   -1.0
H     1.8   -0.2   -2.1
H     1.7   -0.2    1.0
H     4.0    0.7    0.6
H     2.3    2.6    1.5
H     3.0    4.5   -0.2
H     4.1    3.4   -2.4
H     4.2    0.8   -2.1
