          17
 frame:         3353
C     1.0    0.1    0.5
C     2.5   -0.0   -0.0
C     2.8    1.2   -0.9
O     4.1    1.2   -1.4
C     4.6   -0.0   -1.8
C     4.0   -1.2   -1.6
C     2.7   -1.3   -0.8
H     0.9    1.0    1.1
H     0.8   -0.8    1.2
H     0.3    0.1   -0.3
H     3.2    0.0    0.8
H     2.6    2.1   -0.4
H     2.1    1.1   -1.8
H     5.6    0.1   -2.3
H     4.5   -2.1   -2.0
H     1.9   -1.6   -1.4
H     2.8   -2.2   -0.1
