          17
 frame:         3803
C     2.0   -0.9    1.2
C     3.4   -0.7    0.9
C     4.4   -1.5    1.2
C     3.6    0.6    0.1
O     3.3    1.8    1.0
C     5.0    0.8   -0.5
O     5.1    2.1   -1.1
H     1.5   -0.1    1.8
H     1.9   -1.8    1.9
H     1.4   -1.1    0.3
H     4.2   -2.5    1.7
H     5.4   -1.4    0.9
H     2.9    0.7   -0.7
H     3.8    1.6    1.8
H     5.2    0.1   -1.2
H     5.8    0.8    0.3
H     4.7    2.7   -0.6
