          17
 frame:         4173
C     2.3    0.2    2.4
O     3.4    1.0    2.1
C     3.1    1.9    1.0
C     2.1    3.0    1.3
C     4.5    2.4    0.5
C     4.4    3.2   -0.7
C     4.4    3.9   -1.7
H     2.7   -0.5    3.2
H     2.0   -0.5    1.6
H     1.4    0.7    2.8
H     2.7    1.3    0.1
H     2.5    3.6    2.1
H     1.1    2.6    1.6
H     2.0    3.6    0.4
H     5.2    1.6    0.4
H     4.9    3.0    1.4
H     4.3    4.4   -2.6
