          18
 frame:         5964
C     2.6   -0.6    0.1
O     2.2    0.8    0.1
C     3.3    1.7    0.1
C     2.6    3.1    0.1
N     2.0    3.3    1.4
C     4.6    1.4   -0.0
C     5.7    2.4   -0.1
H     1.7   -1.2    0.2
H     3.3   -0.8    1.0
H     3.1   -0.9   -0.8
H     1.9    3.2   -0.7
H     3.4    3.9   -0.0
H     1.3    2.6    1.6
H     1.5    4.2    1.4
H     4.9    0.4   -0.1
H     5.4    3.5   -0.0
H     6.3    2.3   -1.0
H     6.4    2.2    0.8
