          19
 frame:         3485
C     2.2   -0.5   -1.4
C     2.4    0.0   -0.0
C     3.3    1.3   -0.0
C     2.6    2.6   -0.6
C     3.2    3.4    0.6
O     4.4    4.2    0.4
C     3.5    2.0    1.3
H     1.6   -1.4   -1.4
H     3.1   -0.8   -1.9
H     1.7    0.2   -2.1
H     2.9   -0.8    0.6
H     1.4    0.2    0.5
H     4.2    1.1   -0.5
H     1.6    2.6   -0.6
H     3.0    3.0   -1.6
H     2.5    4.1    1.1
H     5.0    3.6   -0.1
H     4.4    1.9    1.9
H     2.7    1.8    2.1
