          13
 frame:          170
C     1.2   -0.1   -0.6
O     2.5   -0.1   -0.2
C     3.1    1.1   -0.2
C     4.5    1.3   -0.0
C     5.2    2.6    0.1
H     0.8   -1.1   -0.5
H     1.1    0.3   -1.6
H     0.6    0.6    0.1
H     2.5    2.0   -0.2
H     5.1    0.4    0.0
H     4.5    3.4   -0.0
H     5.9    2.7   -0.7
H     5.7    2.7    1.0
