          13
 frame:         4827
C     1.1    0.0    0.1
C     2.5   -0.0   -0.0
N     3.2   -1.1   -0.0
C     4.6   -0.7   -0.1
C     4.7    0.8   -0.2
O     5.6    1.6   -0.2
N     3.3    1.1   -0.1
H     0.7   -1.0    0.1
H     0.7    0.5   -0.8
H     0.7    0.6    0.9
H     5.2   -1.1    0.8
H     5.1   -1.2   -1.0
H     3.0    2.1   -0.1
