          17
 frame:         1412
C     2.8   -1.3    1.2
C     2.6   -0.4   -0.0
C     2.0   -0.8   -1.1
C     3.2    1.0    0.1
C     4.7    1.0    0.1
C     5.3    2.4    0.1
C     5.7    3.5    0.2
H     3.9   -1.5    1.4
H     2.3   -2.3    1.0
H     2.4   -0.8    2.1
H     1.6   -1.8   -1.2
H     1.8   -0.2   -2.0
H     2.8    1.5    1.0
H     2.8    1.6   -0.8
H     5.1    0.5   -0.8
H     5.1    0.4    0.9
H     6.1    4.5    0.3
