          19
 frame:         1192
C     1.3    0.3    0.7
C     2.5   -0.1   -0.2
C     2.3   -1.5   -0.8
C     3.3   -1.5   -2.0
C     3.4   -0.0   -2.5
C     2.1    0.7   -2.6
C     2.9    0.8   -1.3
H     1.4    1.3    1.1
H     1.0   -0.4    1.4
H     0.4    0.4   -0.0
H     3.4   -0.1    0.5
H     1.3   -1.6   -1.2
H     2.5   -2.3   -0.1
H     4.3   -1.8   -1.7
H     3.0   -2.2   -2.8
H     4.2    0.3   -3.1
H     2.1    1.6   -3.2
H     1.1    0.2   -2.6
H     3.3    1.8   -1.1
