          15
 frame:         4492
O     2.2   -1.3   -1.1
C     3.4   -0.8   -0.3
C     3.0    0.6    0.2
C     3.7    1.7    0.0
C     3.4    3.0    0.6
C     4.5    3.7    1.3
O     5.7    3.3    1.4
H     2.4   -2.2   -1.2
H     4.3   -0.7   -0.9
H     3.6   -1.4    0.5
H     2.1    0.6    0.8
H     4.7    1.6   -0.6
H     2.5    3.0    1.2
H     3.1    3.7   -0.2
H     4.2    4.7    1.8
