          14
 frame:         6022
C     1.1   -0.1   -0.7
O     2.5   -0.1   -0.3
N     3.0    1.2   -0.4
C     4.2    1.2   -0.0
C     5.0    2.5   -0.0
C     5.6    3.5   -0.0
C     6.5    4.7    0.0
H     0.8   -1.1   -0.6
H     1.0    0.3   -1.7
H     0.5    0.5   -0.0
H     4.7    0.3    0.2
H     5.8    5.5   -0.1
H     7.2    4.7   -0.8
H     7.0    4.8    1.0
