          17
 frame:         3875
C     0.8    0.2   -0.1
C     2.4    0.0    0.0
C     2.8   -0.8    1.3
O     2.8   -0.8   -1.1
C     3.0    1.4   -0.0
C     4.5    1.4    0.1
C     5.7    1.4    0.1
H     0.6    0.7   -1.0
H     0.5    0.8    0.8
H     0.3   -0.8   -0.1
H     2.5   -0.2    2.2
H     3.9   -0.9    1.3
H     2.3   -1.8    1.2
H     2.6   -0.3   -1.9
H     2.6    2.0    0.8
H     2.7    1.9   -0.9
H     6.8    1.4    0.2
