          15
 frame:         1142
O     0.8    0.3   -0.3
C     2.2    0.0   -0.5
C     2.9    0.9    0.6
N     4.3    0.7    0.5
C     5.1    1.5   -0.4
C     5.1    1.7    1.1
H     0.3   -0.3   -1.0
H     2.5    0.2   -1.5
H     2.4   -1.1   -0.2
H     2.5    0.6    1.6
H     2.6    2.0    0.4
H     4.5    2.3   -0.9
H     5.9    1.1   -0.9
H     6.0    1.4    1.6
H     4.6    2.6    1.5
