          13
 frame:         4378
O     1.0    0.0    0.5
C     2.2    0.0    0.2
O     2.9    1.2    0.4
C     4.2    1.3   -0.2
C     5.0    0.0    0.2
C     4.3   -1.2   -0.2
C     2.9   -1.2   -0.2
H     4.6    2.2    0.2
H     4.1    1.4   -1.3
H     5.3    0.0    1.2
H     6.0    0.1   -0.4
H     4.8   -2.1   -0.4
H     2.3   -2.0   -0.4
