          15
 frame:         1885
C     1.2   -0.1    0.0
C     2.7    0.2    0.1
N     3.1    1.3   -0.5
C     4.6    1.3   -0.2
C     4.9   -0.0    0.5
C     4.5   -1.3   -0.2
N     3.5   -0.7    0.8
H     1.1   -1.1   -0.4
H     0.6    0.6   -0.6
H     0.8   -0.2    1.1
H     5.2    1.4   -1.2
H     4.8    2.1    0.4
H     5.6   -0.1    1.3
H     4.9   -2.2    0.1
H     4.2   -1.2   -1.3
