          16
 frame:          521
C     1.7   -0.2   -0.3
C     3.0   -0.0    0.4
N     3.5    1.4    0.3
C     4.6    1.6   -0.2
N     5.1    2.8   -0.4
C     4.5    4.0    0.1
H     1.3   -1.2   -0.2
H     1.9   -0.0   -1.4
H     0.9    0.5   -0.0
H     3.8   -0.7    0.1
H     2.8   -0.2    1.5
H     5.3    0.7   -0.6
H     6.1    2.9   -0.6
H     3.4    4.0   -0.2
H     5.0    4.9   -0.3
H     4.5    4.0    1.2
