          18
 frame:         4698
C     0.9    0.0    0.0
C     2.4    0.0    0.0
C     3.2    1.0    0.9
N     4.2   -0.1    1.4
C     3.2   -1.1    0.8
C     3.8   -2.3    0.1
O     4.5   -3.1    1.0
H     0.5   -0.8   -0.5
H     0.5    0.9   -0.5
H     0.5   -0.0    1.1
H     2.8    0.0   -1.0
H     2.6    1.4    1.8
H     3.7    1.9    0.4
H     5.0   -0.0    0.7
H     2.6   -1.4    1.7
H     4.5   -1.9   -0.7
H     3.0   -2.9   -0.3
H     5.0   -2.6    1.6
