          17
 frame:         3312
C     1.1   -0.1    0.2
C     2.6   -0.2   -0.1
C     3.1   -0.7   -1.4
O     2.2   -1.1   -2.3
C     3.2    0.8   -1.1
C     4.6    1.4   -0.8
C     5.5    1.0    0.0
H     0.9    0.7    0.9
H     0.7   -1.0    0.6
H     0.5    0.1   -0.7
H     3.2   -0.4    0.8
H     4.1   -1.2   -1.4
H     2.5   -1.0   -3.2
H     2.5    1.4   -1.6
H     4.8    2.3   -1.5
H     5.3    0.2    0.7
H     6.5    1.6    0.1
