          17
 frame:         3081
C    -1.8    0.7    0.4
O    -1.8   -0.8   -0.1
C    -0.3   -0.7    0.2
C     0.9   -1.2   -0.5
C     1.9   -0.1   -0.0
C     1.1    1.1    0.5
C    -0.3    0.8   -0.0
H    -2.5    1.3   -0.2
H    -2.0    0.8    1.4
H    -0.2   -0.9    1.3
H     1.2   -2.2   -0.2
H     0.8   -1.2   -1.6
H     2.6   -0.5    0.8
H     2.6    0.2   -0.9
H     1.1    1.2    1.6
H     1.5    2.1    0.1
H    -0.3    0.9   -1.1
