          17
 frame:         4120
C     1.6   -0.6   -0.9
O     2.2   -0.0    0.2
C     3.0    1.1   -0.1
C     4.2    0.8   -1.0
C     2.2    2.4   -0.5
O     2.8    3.2    0.7
C     3.3    1.9    1.2
H     0.9   -1.4   -0.5
H     2.3   -1.1   -1.6
H     1.0    0.1   -1.5
H     4.8    1.8   -1.1
H     3.9    0.6   -2.0
H     4.8    0.1   -0.5
H     1.1    2.3   -0.3
H     2.4    2.9   -1.4
H     4.4    2.0    1.5
H     2.7    1.6    2.1
