          17
 frame:         1291
C     0.9   -0.1   -0.1
C     2.4    0.1    0.0
C     3.1    1.2   -0.1
C     4.6    1.3    0.1
C     5.3   -0.0   -0.2
C     4.5   -1.2    0.3
C     3.2   -1.2    0.4
H     0.7   -0.8   -0.9
H     0.5    0.9   -0.4
H     0.5   -0.4    0.8
H     2.6    2.1   -0.3
H     5.0    2.1   -0.4
H     4.8    1.5    1.2
H     6.3   -0.1    0.1
H     5.4   -0.1   -1.4
H     5.0   -2.1    0.5
H     2.6   -2.0    0.7
