          19
 frame:         4063
C     0.9    2.3    1.8
C     2.4    2.3    1.6
O     2.7    1.8    0.3
C     4.1    1.7    0.1
O     4.8    3.0    0.1
C     4.4    3.7   -1.1
C     5.2    5.0   -1.1
H     0.6    2.6    2.8
H     0.5    1.3    1.6
H     0.4    2.9    1.0
H     2.8    1.6    2.4
H     2.8    3.3    1.8
H     4.3    1.1   -0.8
H     4.6    1.2    1.0
H     3.4    3.9   -1.2
H     4.7    3.1   -2.0
H     5.0    5.6   -0.2
H     5.0    5.6   -2.0
H     6.3    4.8   -1.1
