          15
 frame:         2796
C     1.2   -0.1   -1.0
N     2.5   -0.1   -0.6
N     3.2    1.1   -0.7
C     4.2    1.3    0.1
C     5.0    2.5    0.0
C     5.7    3.5    0.0
C     6.5    4.7   -0.0
H     0.8   -1.1   -1.1
H     1.1    0.4   -2.0
H     0.5    0.5   -0.4
H     2.7   -0.6    0.3
H     4.5    0.6    0.9
H     5.9    5.6   -0.1
H     7.2    4.7   -0.9
H     7.2    4.8    0.9
