          15
 frame:         3974
C     3.2   -0.4   -0.1
C     4.4    0.1   -0.3
O     4.9    1.2    0.2
C     5.9    1.9   -0.6
C     6.1    1.7   -1.9
C     6.7    2.8    0.3
C     6.5    3.0    1.6
H     2.8   -1.3   -0.4
H     2.5    0.3    0.5
H     5.1   -0.5   -0.9
H     5.5    1.1   -2.5
H     6.9    2.3   -2.4
H     7.4    3.4   -0.3
H     5.8    2.4    2.2
H     7.1    3.7    2.1
