          13
 frame:         6092
N     1.0    0.0   -0.1
C     2.4   -0.1    0.0
C     3.1   -1.3   -0.6
C     4.0   -0.9   -1.4
N     4.1    0.5   -1.5
C     3.1    1.1   -0.7
O     2.8    2.3   -0.6
H     0.7    1.0    0.0
H     0.5   -0.6    0.6
H     2.8   -0.1    1.1
H     2.8   -2.4   -0.4
H     4.7   -1.5   -2.0
H     4.7    1.1   -2.1
