          17
 frame:         1018
C     0.9    0.0   -0.0
C     2.4    0.0    0.1
C     2.9   -0.8    1.3
O     2.9   -0.6   -1.2
C     3.0    1.4    0.2
N     4.4    1.4   -0.1
H     0.6    0.6   -0.9
H     0.5    0.5    0.9
H     0.5   -1.0   -0.1
H     2.5   -0.4    2.2
H     4.0   -0.9    1.3
H     2.5   -1.9    1.1
H     3.8   -0.2   -1.2
H     2.7    1.9    1.1
H     2.5    2.0   -0.7
H     5.0    1.2    0.8
H     4.8    2.3   -0.4
