          17
 frame:         2760
C     0.7    2.2   -0.1
N     2.2    2.2   -0.2
C     2.8    1.1   -0.0
N     4.2    1.0   -0.0
C     5.0    2.1   -0.5
C     6.4    2.0    0.0
C     7.5    1.9   -0.8
H     0.2    2.5   -1.0
H     0.4    2.9    0.7
H     0.3    1.2    0.2
H     2.3    0.2    0.3
H     4.5    0.1   -0.1
H     4.5    3.0   -0.2
H     5.0    2.1   -1.6
H     6.5    2.0    1.1
H     7.4    1.9   -1.9
H     8.5    1.9   -0.3
