          16
 frame:         5049
C     0.9    0.1    0.1
C     2.3   -0.3   -0.0
C     2.7   -1.7   -0.0
C     3.2    0.7   -0.1
N     4.6    0.6   -0.3
C     5.5    1.7   -0.4
O     6.7    1.5   -0.5
H     0.7    1.1    0.1
H     0.5   -0.4    1.1
H     0.3   -0.4   -0.7
H     2.2   -2.2   -0.9
H     2.4   -2.2    0.9
H     3.8   -1.9   -0.2
H     2.9    1.8   -0.1
H     5.0   -0.3   -0.3
H     5.0    2.6   -0.4
