          18
 frame:         1898
C     1.0    0.1   -0.3
C     2.4   -0.0    0.1
N     2.7   -1.2    1.0
C     3.6   -0.8    2.1
C     3.5    0.7    2.1
C     4.2    1.5    3.2
C     2.9    1.1    1.0
H     0.7   -0.8   -0.9
H     0.8    0.9   -0.9
H     0.3    0.1    0.6
H     3.1   -0.1   -0.8
H     3.0   -2.0    0.5
H     4.7   -1.2    1.9
H     3.3   -1.3    3.0
H     4.0    2.5    3.1
H     5.2    1.3    3.3
H     3.7    1.2    4.2
H     2.7    2.1    0.8
