          15
 frame:         5163
C     0.9    0.0   -0.0
C     2.5   -0.1   -0.0
C     3.1   -1.3   -0.1
N     2.5   -2.5   -0.4
C     3.2    1.2    0.2
N     4.6    1.2   -0.1
O     2.7    2.2    0.7
H     0.5   -0.2   -1.0
H     0.6    1.0    0.3
H     0.5   -0.7    0.6
H     4.2   -1.3   -0.0
H     1.5   -2.5   -0.3
H     3.0   -3.3   -0.1
H     4.8    0.6   -0.9
H     5.0    2.1   -0.0
