          14
 frame:         6848
O     1.5   -0.3   -0.1
N     2.8    0.1   -0.0
C     2.9    1.4   -0.0
C     1.8    2.4    0.0
C     1.9    3.7   -0.1
C     4.3    2.0    0.1
C     5.3    1.4   -0.5
H     1.6   -1.2   -0.1
H     0.8    1.9    0.2
H     2.8    4.2   -0.4
H     1.0    4.3   -0.1
H     4.4    2.9    0.6
H     5.2    0.5   -1.1
H     6.3    1.8   -0.4
