          18
 frame:         2365
C     1.0   -1.0    0.6
C     2.3   -0.8   -0.1
C     3.1   -2.1   -0.4
N     2.1   -0.1   -1.4
C     3.3    0.5   -2.0
C     2.9    1.4   -3.1
C     2.6    2.2   -4.0
H     0.5   -0.1    0.8
H     1.2   -1.5    1.5
H     0.4   -1.6   -0.1
H     3.0   -0.1    0.5
H     2.5   -2.7   -1.0
H     3.3   -2.6    0.6
H     4.1   -1.9   -0.8
H     1.4    0.7   -1.3
H     3.9   -0.3   -2.5
H     3.9    1.1   -1.3
H     2.4    2.9   -4.8
