          16
 frame:         5299
C    -0.5   -1.6    1.3
C     0.6   -1.2    0.3
C     1.6   -2.2    0.1
O    -0.0   -0.9   -1.0
N    -0.9    0.2   -1.0
C    -2.2   -0.0   -1.4
O    -2.9    0.9   -1.7
H    -1.3   -0.9    1.4
H    -0.1   -1.8    2.3
H    -0.9   -2.6    1.0
H     1.0   -0.2    0.7
H     1.2   -3.1   -0.3
H     2.2   -2.4    1.1
H     2.4   -1.8   -0.6
H    -0.4    1.1   -1.3
H    -2.5   -1.1   -1.3
