          21
 frame:         3782
C     0.9   -0.1    0.0
C     2.5   -0.0    0.0
C     3.0    1.4   -0.0
C     4.6    1.5   -0.1
O     5.1    0.8   -1.2
C     5.1    2.9   -0.0
C     6.6    3.0    0.1
H     0.6   -1.1    0.1
H     0.6    0.4   -0.9
H     0.5    0.5    0.8
H     2.9   -0.6   -0.8
H     2.8   -0.5    1.0
H     2.7    2.0    0.8
H     2.6    1.9   -0.9
H     5.0    0.9    0.8
H     4.8    1.2   -2.0
H     4.7    3.4    0.9
H     4.7    3.5   -0.9
H     7.0    2.5    1.0
H     7.0    4.0    0.1
H     7.1    2.5   -0.8
