          17
 frame:         5073
C     1.3   -0.6    0.2
C     2.8   -0.5   -0.2
C     3.5    0.8    0.2
C     5.0    0.8   -0.2
N     5.5    1.0   -1.4
N     5.9    0.7    0.9
O     7.2    0.9    0.5
H     0.9   -1.5   -0.2
H     0.8    0.3   -0.2
H     1.2   -0.6    1.3
H     2.9   -0.6   -1.3
H     3.4   -1.4    0.1
H     3.4    0.8    1.3
H     3.0    1.6   -0.2
H     4.8    1.0   -2.1
H     5.7    1.2    1.7
H     7.1    1.0   -0.5
