          19
 frame:         4062
C     5.7   -2.5    0.1
C     5.6   -1.4   -1.0
O     6.2   -0.2   -0.4
C     6.2    0.8   -1.3
C     6.6    2.1   -0.6
O     7.0    0.6   -2.5
C     8.4    0.5   -2.3
H     5.2   -3.5   -0.3
H     5.2   -2.2    1.0
H     6.7   -2.7    0.4
H     4.6   -1.2   -1.2
H     6.2   -1.8   -1.9
H     5.2    0.9   -1.8
H     7.5    1.9   -0.1
H     5.8    2.3    0.2
H     6.6    3.0   -1.2
H     8.8    0.1   -3.2
H     8.6   -0.2   -1.5
H     8.8    1.5   -2.0
