          14
 frame:         4917
C     1.0   -0.0   -0.2
C     2.5   -0.0    0.0
O     3.0    0.2   -1.3
C     3.0   -1.3    0.7
O     4.1   -0.8    1.6
N     3.9    0.6    1.8
C     3.0    1.0    1.0
H     0.4   -0.2    0.8
H     0.7   -0.8   -0.9
H     0.6    0.9   -0.6
H     4.0    0.4   -1.2
H     3.5   -2.0   -0.0
H     2.3   -1.8    1.3
H     2.7    2.1    1.0
