          15
 frame:         4306
O     0.9    0.0    0.1
C     2.4   -0.0    0.0
C     3.0    1.1    0.9
C     4.1    0.0    1.3
C     3.1   -1.1    0.9
C     3.6   -2.3    0.2
C     4.0   -3.3   -0.4
H     0.6   -0.6   -0.6
H     2.8    0.0   -1.0
H     2.4    1.3    1.8
H     3.3    2.0    0.4
H     5.0    0.1    0.6
H     4.5    0.0    2.3
H     2.5   -1.4    1.7
H     4.4   -4.1   -0.9
