          15
 frame:         6429
N     1.3   -0.1    0.6
N     2.4    0.1   -0.3
C     2.9    1.2   -0.4
C     2.5    2.5    0.4
C     3.4    3.6   -0.2
C     4.5    2.8   -0.9
O     3.9    1.5   -1.2
H     0.8   -0.9    0.2
H     0.7    0.7    0.7
H     2.8    2.3    1.5
H     1.5    2.7    0.4
H     2.8    4.1   -1.0
H     3.8    4.3    0.5
H     5.0    3.2   -1.8
H     5.3    2.6   -0.1
