          15
 frame:         4331
O     1.1    0.1    0.9
C     2.1    0.0    0.3
C     2.8    1.2   -0.3
C     4.3    1.3    0.1
C     5.0   -0.1   -0.1
C     4.3   -1.2   -0.1
C     2.8   -1.3    0.1
H     2.3    2.1    0.0
H     2.8    1.2   -1.4
H     4.4    1.6    1.2
H     4.8    2.0   -0.5
H     6.1   -0.1   -0.1
H     4.8   -2.1   -0.2
H     2.4   -1.8   -0.9
H     2.5   -2.0    0.9
