          19
 frame:         3006
N     1.9    0.1   -1.6
C     3.1    0.1   -0.7
C     2.9    1.2    0.3
N     1.7    1.0    1.1
C     4.1    1.3    1.3
C     5.3    2.2    0.9
C     4.4    2.6    2.0
H     2.0   -0.8   -2.2
H     1.9    0.8   -2.3
H     4.1    0.3   -1.3
H     3.2   -0.8   -0.2
H     2.8    2.2   -0.2
H     1.8    0.3    1.8
H     0.9    0.7    0.5
H     4.4    0.4    1.8
H     5.2    2.8   -0.0
H     6.3    1.8    1.1
H     4.8    2.5    3.0
H     3.7    3.4    1.9
