          15
 frame:         4696
C     1.0   -0.2    0.1
C     2.5    0.0   -0.2
C     3.1   -0.5   -1.4
N     2.8    0.9   -1.4
C     3.9    1.8   -1.2
N     3.5    3.0   -0.6
O     5.0    1.6   -1.7
H     0.6    0.6    0.7
H     0.9   -1.1    0.8
H     0.4   -0.3   -0.8
H     3.1    0.2    0.7
H     2.6   -1.1   -2.1
H     4.2   -0.8   -1.4
H     2.5    3.2   -0.7
H     4.1    3.8   -0.7
