          16
 frame:         2073
C     1.1    0.1    0.0
C     2.6   -0.1   -0.1
C     3.0   -0.8   -1.3
C     3.2   -1.5   -2.3
C     3.4    1.3   -0.1
C     3.7    1.9    1.2
N     4.8    1.2    0.4
H     0.9    0.7    1.0
H     0.6   -0.8    0.1
H     0.7    0.7   -0.8
H     3.0   -0.6    0.8
H     3.4   -2.0   -3.2
H     3.2    1.9   -1.0
H     3.5    1.5    2.1
H     3.7    3.0    1.2
H     5.4    1.9   -0.1
