          13
 frame:         6835
O     1.0    0.1   -0.4
N     2.4   -0.1    0.0
C     2.9    1.1    0.1
C     4.3    1.3    0.5
N     4.6    2.7    0.3
C     3.4    3.4    0.0
C     2.4    2.5   -0.1
H     0.8   -0.9   -0.4
H     5.0    0.7   -0.0
H     4.5    1.1    1.6
H     5.3    3.2    0.9
H     3.4    4.4   -0.1
H     1.4    2.7   -0.4
