          17
 frame:         6328
N     1.2    0.2   -0.8
C     2.6    0.2   -0.7
C     3.1    1.3    0.2
O     2.4    1.4    1.4
C     4.6    1.2    0.5
C     5.7    1.6   -0.5
N     5.3    2.5    0.7
H     0.8   -0.7   -1.1
H     0.9    0.9   -1.5
H     3.1    0.2   -1.7
H     2.9   -0.8   -0.2
H     3.0    2.3   -0.4
H     1.5    1.1    1.1
H     4.8    0.4    1.2
H     5.4    2.0   -1.4
H     6.6    1.0   -0.5
H     6.0    2.3    1.4
