          17
 frame:         3984
C     0.2   -0.1    1.1
C     1.6   -0.6    0.9
O     1.9   -1.8    1.1
C     2.7    0.4    0.4
C     4.1   -0.2    0.3
C     5.1    0.7   -0.2
C     6.2    1.2    0.5
H     0.3    0.7    1.8
H    -0.4   -0.8    1.4
H    -0.1    0.4    0.1
H     2.7    1.2    1.1
H     2.4    0.8   -0.6
H     4.1   -1.1   -0.3
H     4.4   -0.6    1.3
H     4.9    1.1   -1.2
H     6.5    0.8    1.5
H     6.9    1.9    0.0
