          13
 frame:         6352
N     1.2    0.1    0.5
C     2.4    0.1    0.1
N     3.2    1.2    0.2
C     2.7    2.6    0.4
C     3.9    3.0   -0.5
O     4.3    4.1   -0.8
C     4.3    1.6   -0.7
H     0.7   -0.8    0.4
H     2.9   -0.8   -0.3
H     2.7    2.9    1.5
H     1.7    2.7    0.0
H     4.1    1.2   -1.8
H     5.3    1.3   -0.4
