          13
 frame:         6986
C     2.7   -1.3    0.4
C     2.3   -0.0    0.2
C     3.0    1.2    0.1
C     2.6    2.5   -0.1
C     3.6    3.5   -0.1
C     4.8    3.0    0.1
S     4.8    1.2    0.3
H     2.0   -2.1    0.4
H     3.8   -1.5    0.6
H     1.2    0.1   -0.0
H     1.5    2.7   -0.3
H     3.4    4.5   -0.3
H     5.8    3.5    0.2
