          14
 frame:         4679
C     0.9   -0.1   -0.2
C     2.2    0.0    0.0
C     2.9    1.3    0.3
C     4.3    1.2   -0.2
O     5.0    0.1    0.4
N     4.4   -1.2    0.3
C     3.1   -1.1    0.1
H     0.2    0.8   -0.2
H     0.4   -1.0   -0.4
H     2.4    2.2   -0.1
H     3.0    1.5    1.4
H     5.0    2.1    0.1
H     4.3    1.1   -1.3
H     2.6   -2.1   -0.0
