          14
 frame:          342
C     0.4    1.4    0.3
C     1.4    0.3   -0.2
N     1.0   -0.9    0.4
N    -0.3   -1.3    0.2
C    -1.2   -0.4    0.0
C    -1.0    1.1   -0.1
H     0.7    2.4   -0.1
H     0.5    1.5    1.4
H     2.4    0.5    0.1
H     1.3    0.3   -1.3
H     1.6   -1.7    0.2
H    -2.3   -0.8   -0.1
H    -1.3    1.4   -1.1
H    -1.7    1.6    0.6
