          12
 frame:          941
O     2.2   -0.7    1.4
C     2.7   -0.2    0.1
C     3.2    1.2    0.3
C     4.2    1.8   -0.3
C     4.6    3.2   -0.1
O     5.5    3.7   -0.7
H     1.8   -1.5    1.3
H     1.8   -0.1   -0.6
H     3.5   -0.8   -0.3
H     2.6    1.8    1.0
H     4.8    1.2   -1.0
H     3.9    3.7    0.6
