          16
 frame:         2149
C     0.9   -0.1    0.0
C     2.4    0.0    0.0
C     3.6    0.1    0.0
C     5.0    0.1   -0.0
C     5.8    1.2   -0.3
C     7.3    1.1   -0.3
N     7.8    1.7   -1.5
H     0.5    1.0    0.1
H     0.6   -0.6    0.9
H     0.5   -0.6   -0.9
H     5.5   -0.9    0.2
H     5.3    2.1   -0.5
H     7.6    0.1   -0.0
H     7.6    1.8    0.6
H     7.6    1.1   -2.3
H     8.8    1.8   -1.5
