          17
 frame:         5539
C     1.1   -0.8    0.3
C     2.6   -0.3    0.5
O     3.5   -1.3   -0.0
C     2.8    1.0   -0.3
N     4.0    1.7   -0.0
N     5.2    0.9   -0.3
C     6.3    1.3    0.2
H     0.4   -0.2    0.8
H     1.0   -1.8    0.8
H     0.9   -1.0   -0.8
H     2.8   -0.1    1.6
H     4.3   -0.9   -0.2
H     2.0    1.7    0.0
H     2.7    0.8   -1.4
H     4.1    2.2    0.9
H     7.2    0.7   -0.0
H     6.4    2.1    1.0
