          20
 frame:         5149
C     1.2   -0.1    0.8
C     2.4   -0.1   -0.3
C     2.2   -1.3   -1.3
N     1.0   -1.1   -2.1
C     2.6    1.2   -0.9
C     3.8    1.4   -1.8
O     5.0    1.2   -1.0
H     1.4    0.6    1.5
H     1.1   -1.1    1.2
H     0.3    0.2    0.3
H     3.3   -0.4    0.3
H     2.2   -2.2   -0.7
H     3.1   -1.3   -1.9
H     0.2   -1.3   -1.6
H     1.1   -1.8   -2.9
H     2.5    2.0   -0.2
H     1.7    1.4   -1.6
H     3.8    2.4   -2.2
H     3.9    0.6   -2.6
H     5.1    1.9   -0.3
