          14
 frame:         6498
O     1.8    0.2    1.4
C     2.6   -0.0    0.4
C     2.8   -1.4   -0.3
C     4.2   -1.3   -0.9
C     4.5    0.2   -1.0
N     3.5    1.0   -1.7
C     3.5    1.0   -0.2
H     2.0   -1.4   -1.1
H     2.6   -2.2    0.3
H     4.9   -1.8   -0.2
H     4.3   -1.8   -1.9
H     5.6    0.5   -1.0
H     3.9    1.9   -2.0
H     3.8    1.9    0.4
