          17
 frame:         1549
C     1.9    0.1   -0.7
N     1.8   -0.0    0.8
C     0.6    0.1   -0.1
C    -0.4    1.3    0.1
C    -1.8    0.7   -0.1
N    -1.6   -0.7    0.3
C    -0.3   -1.1   -0.3
H     2.3    1.1   -1.0
H     2.3   -0.7   -1.3
H     1.9   -1.0    1.0
H    -0.2    1.6    1.1
H    -0.1    2.1   -0.6
H    -2.5    1.2    0.5
H    -2.0    0.8   -1.2
H    -2.4   -1.3   -0.0
H    -0.4   -1.3   -1.4
H     0.0   -2.1    0.1
