          22
 frame:         2175
C     3.5   -1.1   -0.5
C     2.9   -0.2    0.6
C     3.3    1.3    0.5
C     2.4    2.1    1.4
C     4.8    1.5    0.8
C     5.3    2.9    0.5
N     5.1    1.1    2.2
H     3.1   -2.1   -0.5
H     4.6   -1.2   -0.3
H     3.4   -0.7   -1.5
H     3.1   -0.6    1.6
H     1.8   -0.2    0.4
H     3.2    1.7   -0.5
H     2.5    1.8    2.5
H     1.4    2.1    1.1
H     2.7    3.2    1.4
H     5.3    0.8    0.2
H     4.9    3.7    1.1
H     5.1    3.1   -0.6
H     6.4    3.0    0.6
H     4.8    1.8    2.9
H     6.1    1.0    2.4
