          13
 frame:         1375
C     2.7   -0.8    2.8
C     3.1   -0.5    1.7
C     3.6   -0.1    0.4
C     4.1    1.4    0.4
C     5.4    1.7   -0.0
C     5.9    3.0   -0.1
C     6.4    4.1   -0.1
H     2.3   -1.1    3.7
H     2.8   -0.1   -0.4
H     4.4   -0.8    0.0
H     3.5    2.1    0.7
H     6.1    0.9   -0.4
H     6.8    5.1   -0.1
