          22
 frame:         2249
C    -0.4    0.7   -0.5
C     1.1    0.3   -0.6
C     2.1    1.4   -0.5
C     3.5    0.9   -0.6
N     4.5    2.1   -0.6
C     5.9    1.6   -0.7
C     6.8    2.8   -0.5
H    -1.1   -0.1   -0.5
H    -0.6    1.5   -1.2
H    -0.5    1.2    0.5
H     1.2   -0.2   -1.6
H     1.3   -0.5    0.2
H     2.0    1.9    0.5
H     1.9    2.2   -1.2
H     3.7    0.5   -1.6
H     3.8    0.1    0.1
H     4.4    2.5    0.3
H     6.0    1.2   -1.7
H     6.2    0.9    0.1
H     6.6    3.6   -1.3
H     7.9    2.5   -0.6
H     6.7    3.3    0.5
