          17
 frame:         3481
C     1.0   -0.1    0.3
C     2.4    0.1   -0.2
C     3.1    1.2   -0.2
C     2.7    2.5    0.4
C     3.8    3.5   -0.1
O     5.0    2.6   -0.2
C     4.5    1.4   -0.8
H     1.0   -0.9    1.1
H     0.3   -0.5   -0.4
H     0.6    0.8    0.8
H     2.8   -0.8   -0.7
H     2.7    2.5    1.5
H     1.7    2.9    0.2
H     3.5    3.9   -1.0
H     4.1    4.3    0.6
H     4.4    1.5   -1.9
H     5.2    0.6   -0.5
