          15
 frame:         4092
C     2.4   -0.9   -0.9
O     2.1    0.3   -0.2
C     3.2    1.2   -0.0
C     3.6    2.1   -1.1
C     2.9    2.6    0.1
C     3.5    3.4    1.1
C     4.1    4.1    1.9
H     1.5   -1.5   -1.0
H     3.2   -1.5   -0.3
H     2.8   -0.7   -1.9
H     4.0    0.8    0.6
H     3.0    2.1   -2.0
H     4.6    2.4   -1.2
H     1.8    2.9   -0.0
H     4.7    4.7    2.6
