          20
 frame:         6258
N     1.2   -0.2    0.9
C     2.5    0.5    1.1
C     2.9    1.3   -0.2
C     4.3    2.0   -0.0
C     4.7    2.8   -1.3
C     6.0    3.5   -1.1
O     6.2    4.2   -2.3
H     0.5    0.5    0.8
H     1.0   -0.8    1.7
H     3.3   -0.3    1.3
H     2.5    1.1    2.0
H     2.1    2.0   -0.4
H     2.9    0.6   -1.0
H     5.1    1.2    0.2
H     4.2    2.6    0.9
H     3.9    3.5   -1.5
H     4.7    2.1   -2.1
H     6.8    2.7   -0.9
H     6.0    4.2   -0.2
H     7.1    4.7   -2.2
