          17
 frame:         5193
C     0.8    0.0    0.0
C     2.3   -0.2    0.1
C     3.1    1.1   -0.1
N     4.5    0.9    0.0
N     5.0    0.5    1.3
C     5.4    0.8   -1.0
O     6.5    0.5   -0.9
H     0.2   -0.9    0.1
H     0.5    0.5   -0.9
H     0.5    0.7    0.8
H     2.6   -0.9   -0.7
H     2.6   -0.7    1.0
H     2.8    1.8    0.7
H     2.9    1.5   -1.1
H     5.4    1.4    1.8
H     5.8   -0.1    1.1
H     4.9    1.0   -2.0
