          13
 frame:         1844
C     1.0   -0.0    0.0
C     2.5    0.0    0.0
C     3.2    1.2    0.0
N     4.5    1.2    0.0
C     5.2    0.1    0.0
N     4.6   -1.2    0.0
C     3.2   -1.2    0.0
H     0.6   -1.0   -0.0
H     0.6    0.5   -0.9
H     0.6    0.5    0.9
H     2.7    2.2    0.0
H     6.3    0.1    0.0
H     2.8   -2.1    0.0
