          13
 frame:         5665
C     1.0   -0.0    0.0
N     2.4   -0.1    0.0
C     3.0    1.1    0.0
N     2.5    2.4    0.0
C     3.6    3.3    0.0
C     4.7    2.5    0.0
O     4.4    1.2    0.0
H     0.6   -1.1   -0.0
H     0.6    0.5   -0.9
H     0.6    0.5    0.9
H     1.5    2.6   -0.0
H     3.5    4.4   -0.0
H     5.8    2.8    0.0
