          17
 frame:         2706
C     1.0   -0.0    0.1
N     2.5    0.0    0.1
C     3.1   -1.2   -0.1
C     2.6   -2.4   -0.4
C     3.1    1.3    0.1
C     2.4    2.5    0.6
N     4.4    1.4   -0.3
H     0.6    0.9    0.3
H     0.7   -0.8    0.8
H     0.6   -0.3   -0.9
H     4.2   -1.1    0.1
H     1.5   -2.5   -0.6
H     3.2   -3.2   -0.5
H     1.9    2.3    1.6
H     1.6    2.8   -0.1
H     3.1    3.3    0.7
H     4.8    0.6   -0.8
