          14
 frame:          460
C     1.0    0.0   -0.1
C     2.5   -0.0   -0.1
C     3.2   -1.2   -0.1
C     3.2    1.3   -0.1
N     2.7    2.3    0.7
N     4.3    1.5   -0.7
H     0.6    0.7   -0.9
H     0.6    0.4    0.9
H     0.6   -1.0   -0.2
H     2.6   -2.1   -0.1
H     4.2   -1.2   -0.0
H     1.7    2.3    0.9
H     3.1    3.2    0.5
H     4.6    0.7   -1.2
