          15
 frame:         6523
O     1.0    0.1    0.1
C     2.4    0.0    0.0
C     3.0    1.2    0.8
C     4.4    0.6    1.2
N     4.1   -0.8    1.4
C     3.0   -1.2    0.7
N     2.6   -2.5    0.6
H     0.6   -0.7   -0.5
H     2.7    0.0   -1.0
H     2.4    1.3    1.7
H     3.1    2.1    0.2
H     5.1    0.8    0.5
H     4.7    1.1    2.2
H     4.8   -1.5    1.7
H     1.8   -2.6    0.1
