          15
 frame:         4275
O     0.8    0.1   -0.1
C     2.2    0.0    0.2
C     3.1   -0.9   -0.6
C     2.6   -1.4   -1.9
C     2.8   -0.2   -2.8
O     2.7    0.9   -2.0
C     3.2    0.6   -0.7
H     0.8    0.7   -0.9
H     2.3    0.1    1.3
H     3.8   -1.5    0.0
H     3.2   -2.3   -2.2
H     1.5   -1.8   -1.8
H     3.7   -0.3   -3.3
H     2.0   -0.1   -3.6
H     4.1    1.2   -0.4
