          17
 frame:          508
C     0.8   -0.3   -0.0
C     2.4   -0.1    0.0
N     3.1   -1.1   -0.8
C     2.8    1.3   -0.4
C     2.3    2.4    0.5
C     1.6    3.4    0.1
H     0.3    0.5    0.6
H     0.5   -1.3    0.3
H     0.5   -0.2   -1.1
H     2.7   -0.3    1.1
H     2.8   -1.0   -1.8
H     2.8   -2.1   -0.5
H     2.5    1.5   -1.4
H     3.9    1.3   -0.4
H     2.6    2.3    1.6
H     1.3    3.6   -0.9
H     1.3    4.2    0.8
