          18
 frame:          230
C     1.1   -0.2   -0.5
C     2.6    0.1   -0.8
C     3.4    0.3    0.4
C     4.8    0.6    0.2
C     5.9    0.3    1.2
C     5.8   -0.5   -0.1
H     0.5   -0.4   -1.4
H     0.6    0.6    0.0
H     1.0   -1.1    0.1
H     2.6    1.0   -1.5
H     3.0   -0.8   -1.4
H     3.3   -0.6    1.1
H     3.0    1.1    1.0
H     5.0    1.5   -0.5
H     5.6   -0.1    2.1
H     6.7    1.0    1.3
H     6.6   -0.4   -0.8
H     5.5   -1.5    0.0
