          15
 frame:         1112
N     1.9   -0.9   -1.0
C     2.1   -0.2    0.3
C     2.8    1.1    0.2
O     4.2    0.7   -0.2
C     5.0    1.8   -0.4
C     4.8    3.1   -0.3
H     1.4   -1.8   -0.9
H     2.8   -1.2   -1.3
H     2.6   -0.9    1.1
H     1.1    0.0    0.7
H     2.9    1.6    1.1
H     2.4    1.7   -0.6
H     6.0    1.4   -0.7
H     3.8    3.5   -0.0
H     5.6    3.8   -0.5
