          12
 frame:         6746
O     1.5    0.5   -1.7
C     1.7    0.7   -0.5
C     1.0   -0.1    0.5
N     0.4   -0.8    1.3
C     2.8    1.6    0.1
C     4.0    1.8   -0.8
C     3.0    2.9   -0.7
H     2.9    1.6    1.1
H     4.0    1.2   -1.7
H     4.9    1.9   -0.3
H     3.2    3.8   -0.1
H     2.3    3.0   -1.6
