          13
 frame:         3417
C     0.9    0.1   -0.0
C     2.2   -0.0    0.0
O     3.0    1.1    0.0
C     4.4    0.7    0.0
C     5.4    1.6    0.0
C     4.4   -0.8    0.0
C     3.1   -1.2    0.0
H     0.4    1.0    0.0
H     0.3   -0.9   -0.0
H     6.4    1.2    0.0
H     5.2    2.7    0.0
H     5.3   -1.4    0.0
H     2.8   -2.2   -0.0
