          17
 frame:         6277
N     2.7   -0.2    1.9
C     2.5   -0.3    0.5
C     3.1    0.9   -0.2
C     4.6    1.1   -0.0
C     5.4   -0.1   -0.6
N     6.2    0.2   -1.6
O     6.9   -1.0   -2.0
H     2.4   -1.0    2.4
H     2.1    0.6    2.3
H     1.4   -0.3    0.2
H     2.9   -1.2    0.1
H     2.6    1.8    0.1
H     2.9    0.8   -1.3
H     4.8    1.1    1.1
H     5.0    2.0   -0.5
H     5.3   -1.1   -0.2
H     7.5   -0.6   -2.7
