          14
 frame:          660
C     0.9   -0.0    1.0
C     0.3   -1.1   -0.0
C     0.8   -0.0   -1.1
C     0.3    1.0   -0.0
O    -1.1    0.7    0.1
C    -1.1   -0.7    0.1
H     2.0   -0.0    1.0
H     0.5    0.0    2.0
H     0.6   -2.1   -0.1
H     0.2   -0.0   -2.1
H     1.8   -0.0   -1.3
H     0.5    2.0   -0.1
H    -1.8   -1.1   -0.8
H    -1.6   -1.1    1.0
