          18
 frame:          767
C     1.1   -0.2    0.0
C     2.6   -0.1   -0.0
C     3.1    1.3    0.0
C     4.7    1.4    0.1
C     5.1    2.9   -0.0
O     5.2    0.8    1.2
H     0.7   -1.3   -0.0
H     0.6    0.3   -0.8
H     0.7    0.3    0.9
H     3.0   -0.6   -0.9
H     3.0   -0.7    0.9
H     2.7    1.8    0.9
H     2.8    1.9   -0.9
H     5.1    0.8   -0.8
H     4.7    3.5    0.8
H     4.8    3.3   -1.0
H     6.2    2.9   -0.0
H     5.0    1.3    2.0
