          20
 frame:         2128
C     0.9   -0.1    0.2
C     2.4   -0.1    0.1
C     3.0   -1.4    0.1
C     3.1    1.1   -0.0
C     2.5    2.5   -0.1
C     4.6    1.1   -0.1
N     5.1    1.5   -1.4
H     0.5    0.8    0.3
H     0.6   -0.8    1.0
H     0.5   -0.6   -0.7
H     2.6   -2.1   -0.7
H     2.9   -1.9    1.1
H     4.1   -1.4   -0.1
H     1.4    2.4   -0.4
H     3.0    3.0   -0.8
H     2.6    3.0    0.9
H     5.1    0.2    0.3
H     5.0    1.9    0.6
H     4.9    0.8   -2.1
H     6.1    1.6   -1.4
