          14
 frame:         6555
O     0.9    0.2    0.3
C     2.3    0.1   -0.0
C     3.3    1.0    0.8
N     3.6   -0.1    1.7
C     3.0   -1.1    0.7
C     2.4    0.1   -1.5
O     3.4   -0.1   -2.1
H     0.9    0.2    1.3
H     2.9    1.9    1.2
H     4.2    1.2    0.1
H     4.6   -0.3    1.9
H     3.8   -1.6    0.1
H     2.4   -1.9    1.1
H     1.4    0.2   -2.0
