          19
 frame:         4112
C     1.9   -0.5   -1.3
O     2.2    0.1    0.0
C     3.0    1.2   -0.1
C     2.5    2.5   -0.6
C     3.2    3.2    0.6
C     4.5    3.9    0.2
C     3.3    1.9    1.3
H     1.3   -1.4   -1.1
H     2.9   -0.8   -1.7
H     1.4    0.2   -1.9
H     4.0    0.9   -0.6
H     1.4    2.6   -0.5
H     2.7    2.9   -1.6
H     2.6    4.0    1.1
H     5.2    3.2   -0.3
H     5.1    4.2    1.1
H     4.4    4.8   -0.4
H     4.3    1.6    1.8
H     2.5    1.7    2.0
