          14
 frame:          106
C     1.1    0.0    0.2
C     2.5   -0.1    0.1
C     3.1   -1.4   -0.1
C     3.4    1.1   -0.0
N     3.1    2.0    1.2
H     0.8    0.5    1.2
H     0.5   -0.9    0.2
H     0.6    0.7   -0.5
H     2.5   -2.3   -0.1
H     4.2   -1.5   -0.2
H     3.1    1.6   -1.0
H     4.4    0.9   -0.0
H     2.2    2.4    1.1
H     3.8    2.7    1.2
