          18
 frame:         2964
N     1.9   -0.8   -1.1
C     2.7   -0.4    0.0
C     3.0    1.1   -0.0
C     4.2    1.7   -0.0
C     4.4    3.2   -0.0
C     5.2    3.6    1.2
C     6.3    4.2    1.2
H     1.6   -1.8   -1.0
H     2.4   -0.6   -2.0
H     3.7   -0.9    0.1
H     2.2   -0.6    0.9
H     2.0    1.7   -0.0
H     5.1    1.1    0.0
H     3.5    3.7   -0.1
H     5.0    3.5   -0.9
H     4.7    3.5    2.2
H     6.9    4.4    0.3
H     6.8    4.5    2.1
