          17
 frame:         4091
C     0.8    0.8    0.6
O     1.6    1.1   -0.6
C     2.8    1.6   -0.2
C     3.5    2.5   -1.2
C     3.0    3.1    0.1
C     3.9    3.6    1.1
C     5.2    3.6    1.1
H    -0.1    0.3    0.3
H     0.6    1.6    1.2
H     1.4    0.0    1.2
H     3.5    1.0    0.4
H     2.9    2.8   -2.1
H     4.5    2.5   -1.4
H     2.0    3.7   -0.0
H     3.4    4.0    2.0
H     5.8    3.2    0.3
H     5.8    3.9    2.0
