          17
 frame:         4176
C     1.2    2.8   -0.4
O     2.5    2.5   -0.9
C     3.4    2.0    0.1
C     4.7    1.6   -0.5
C     5.9    2.1   -0.0
C     7.2    1.7   -0.6
C     8.3    2.1   -0.1
H     0.6    3.1   -1.3
H     1.2    3.5    0.3
H     0.7    1.9   -0.0
H     2.9    1.1    0.6
H     3.5    2.8    0.9
H     4.7    0.9   -1.3
H     5.9    2.8    0.8
H     7.2    1.0   -1.4
H     8.4    2.8    0.8
H     9.3    1.8   -0.5
