          18
 frame:         5866
C     1.9   -0.5   -1.1
O     1.8    0.6   -0.2
C     3.0    1.3   -0.0
C     3.3    2.4   -1.0
C     2.8    2.8    0.4
C     3.8    3.4    1.4
N     3.8    4.8    1.2
H     1.0   -1.0   -1.1
H     2.7   -1.2   -0.7
H     2.2   -0.1   -2.1
H     3.8    0.7    0.4
H     2.6    2.6   -1.8
H     4.4    2.5   -1.3
H     1.8    3.1    0.4
H     4.8    2.9    1.3
H     3.4    3.2    2.4
H     4.2    5.0    0.3
H     4.5    5.2    1.9
