          18
 frame:         5325
C     1.0    0.0    0.2
C     2.5   -0.0   -0.1
N     3.0   -0.7   -1.3
C     3.1    1.4   -0.1
C     3.2    2.2    1.2
O     4.7    2.3    1.1
C     4.7    1.5   -0.1
H     0.8    0.5    1.1
H     0.6   -1.0    0.2
H     0.5    0.6   -0.6
H     3.0   -0.6    0.7
H     2.5   -0.3   -2.1
H     2.6   -1.7   -1.3
H     2.7    2.0   -0.9
H     2.9    1.6    2.1
H     2.7    3.2    1.2
H     5.1    2.1   -0.9
H     5.2    0.6    0.1
