          16
 frame:          678
C     1.0   -0.1    0.2
C     2.5    0.1   -0.1
C     2.8    0.1   -1.6
C     3.3    1.1    0.7
C     4.0   -0.1    1.3
O     3.3   -1.0    0.5
H     0.9   -0.2    1.3
H     0.7   -1.0   -0.2
H     0.4    0.7   -0.2
H     3.8    0.2   -1.8
H     2.2    1.0   -2.1
H     2.4   -0.8   -2.1
H     2.6    1.7    1.4
H     3.9    1.9    0.1
H     5.1   -0.1    1.1
H     3.9   -0.2    2.4
