          17
 frame:         5996
C     2.6   -0.5    0.1
O     3.9    0.1    0.4
C     4.1    1.3   -0.2
N     3.3    2.0   -0.9
N     5.4    1.7    0.1
C     6.4    0.7    0.5
C     5.9    2.9   -0.5
H     2.6   -1.5    0.6
H     2.4   -0.6   -0.9
H     1.8    0.1    0.6
H     2.4    1.6   -0.9
H     6.0   -0.1    1.1
H     7.2    1.3    1.1
H     6.9    0.3   -0.4
H     5.0    3.6   -0.6
H     6.3    2.8   -1.5
H     6.7    3.4    0.2
