          16
 frame:         6231
N     1.0    0.1    0.4
C     2.0    0.7   -0.5
C     3.0    1.5    0.2
O     4.0    2.3   -0.5
C     3.0    2.9    0.3
C     3.6    3.7    1.5
O     4.2    4.9    1.1
H     0.4   -0.6   -0.1
H     0.4    0.9    0.7
H     1.6    1.3   -1.4
H     2.5   -0.2   -1.0
H     3.5    0.9    1.1
H     2.2    3.5   -0.2
H     4.3    3.0    2.0
H     2.8    4.0    2.2
H     4.8    4.7    0.4
