          20
 frame:         2183
C     1.1   -0.6   -0.0
C     2.6   -0.3   -0.0
C     3.0    1.1   -0.1
C     4.5    1.4   -0.0
C     5.2    2.0   -1.0
C     6.7    2.2   -0.9
N     7.4    1.6   -2.1
H     0.8   -1.6    0.0
H     0.6   -0.2   -0.9
H     0.6   -0.1    0.8
H     3.1   -0.9   -0.8
H     3.0   -0.8    0.9
H     2.5    1.7    0.8
H     2.6    1.6   -1.0
H     5.0    1.0    0.9
H     4.7    2.3   -1.9
H     7.1    1.8    0.1
H     6.9    3.3   -0.9
H     7.3    0.6   -2.0
H     8.4    1.8   -2.0
