          13
 frame:         3121
C     1.6   -0.3    0.1
O     0.9   -1.6    0.2
C    -0.2   -1.0   -0.6
C    -1.4   -0.5    0.1
C    -1.3    0.8    0.3
O    -0.2    1.4   -0.3
C     0.6    0.3   -0.9
H     2.7   -0.5   -0.4
H     1.7    0.2    1.0
H    -0.4   -1.7   -1.5
H    -2.2   -1.1    0.5
H    -1.9    1.5    0.8
H     0.9    0.6   -1.9
