          17
 frame:         3144
C     1.1   -0.0   -0.0
C     2.6   -0.0   -0.0
C     3.5   -0.6   -1.1
C     4.6   -0.4    0.0
C     3.4   -0.8    1.0
C     4.5    1.1    0.1
O     3.1    1.4    0.1
H     0.7    0.4    0.9
H     0.7   -1.0   -0.1
H     0.7    0.6   -0.9
H     3.6   -0.0   -2.0
H     3.3   -1.6   -1.3
H     5.5   -0.9   -0.0
H     3.2   -1.9    1.0
H     3.5   -0.4    2.0
H     4.9    1.5    1.1
H     5.0    1.7   -0.7
