          14
 frame:         6550
O     0.9    0.1    0.1
C     2.3   -0.0    0.0
C     3.1    1.0    0.9
N     4.0   -0.0    1.4
C     3.1   -1.1    0.9
C     3.6   -2.2    0.2
C     4.1   -3.2   -0.4
H     0.5   -0.5   -0.6
H     2.6   -0.1   -1.0
H     2.5    1.4    1.7
H     3.5    1.9    0.3
H     4.8   -0.1    0.8
H     2.4   -1.4    1.7
H     4.6   -4.0   -0.9
