          19
 frame:         2425
C     2.0   -0.8    0.9
C     2.3    0.2   -0.2
C     3.2    1.3    0.1
N     2.9    2.5    0.3
N     4.6    1.0    0.2
C     5.1   -0.2   -0.5
C     5.5    2.0    0.5
H     1.3   -1.5    0.7
H     1.7   -0.2    1.8
H     3.0   -1.3    1.2
H     1.3    0.7   -0.5
H     2.6   -0.3   -1.1
H     1.9    2.6    0.3
H     4.5   -1.0   -0.5
H     6.1   -0.5   -0.1
H     5.4    0.1   -1.6
H     5.1    2.7    1.2
H     5.8    2.6   -0.4
H     6.5    1.6    0.9
