          19
 frame:         4036
C     0.9   -0.3   -0.1
C     2.4   -0.5   -0.3
O     2.6   -1.1   -1.6
C     3.2    0.8   -0.3
C     4.7    0.7   -0.3
C     5.4    2.0   -0.5
O     5.1    2.8   -1.6
H     0.7    0.1    0.9
H     0.4   -1.3   -0.2
H     0.5    0.4   -0.8
H     2.8   -1.2    0.4
H     2.2   -0.6   -2.3
H     2.9    1.3    0.7
H     2.8    1.5   -1.1
H     4.9    0.1   -1.2
H     5.1    0.1    0.5
H     6.5    1.9   -0.4
H     5.1    2.7    0.4
H     5.4    2.2   -2.4
