          13
 frame:         3305
C     1.0    0.0    0.0
C     2.5   -0.0    0.0
C     3.3   -1.1   -0.1
C     4.7   -0.7   -0.1
O     5.7   -1.3   -0.1
O     4.7    0.7    0.1
C     3.3    1.2    0.1
H     0.5   -1.0   -0.1
H     0.6    0.7   -0.8
H     0.6    0.5    1.0
H     3.0   -2.2   -0.2
H     3.2    1.9   -0.7
H     3.2    1.7    1.0
