          16
 frame:         2690
C     1.0   -0.1    0.2
N     2.4   -0.1    0.1
C     3.0    1.2   -0.2
C     4.5    1.1   -0.3
C     5.2    1.6   -1.3
C     6.6    1.6   -1.4
C     7.8    1.6   -1.5
H     0.6   -1.1    0.4
H     0.4    0.3   -0.7
H     0.7    0.5    1.1
H     2.7   -0.8   -0.6
H     2.7    1.9    0.6
H     2.6    1.6   -1.1
H     5.0    0.7    0.6
H     4.7    2.0   -2.2
H     8.9    1.6   -1.6
