          17
 frame:         2512
C     3.5   -1.1    0.2
C     3.3   -0.1    1.3
N     3.2    1.3    0.7
C     2.8    2.3    1.7
C     4.4    1.7   -0.0
C     5.6    1.8    0.8
N     6.5    1.8    1.5
H     3.4   -2.1    0.7
H     4.5   -1.1   -0.3
H     2.7   -1.1   -0.6
H     4.1   -0.1    2.0
H     2.4   -0.2    1.8
H     1.9    2.0    2.2
H     2.7    3.3    1.3
H     3.6    2.4    2.6
H     4.2    2.7   -0.4
H     4.6    1.1   -0.9
