          13
 frame:         4355
O     0.9   -0.0   -0.4
C     2.1   -0.0   -0.2
C     2.8    1.3    0.2
C     4.3    1.2   -0.2
O     5.0    0.0    0.3
C     4.2   -1.1    0.2
C     2.9   -1.2   -0.1
H     2.3    2.1   -0.2
H     2.7    1.4    1.3
H     4.8    2.1    0.2
H     4.3    1.2   -1.3
H     4.9   -2.0    0.3
H     2.5   -2.2   -0.3
