          13
 frame:         4608
C    -0.4    1.4   -0.2
O    -1.5    0.5   -0.5
C    -1.2   -0.9   -0.6
C    -0.3   -1.2    0.6
N     1.0   -0.9    0.6
N     1.5   -0.1   -0.5
C     0.8    0.9   -0.8
H    -0.3    1.4    0.9
H    -0.7    2.4   -0.5
H    -0.7   -1.1   -1.5
H    -2.1   -1.4   -0.5
H    -0.6   -1.8    1.4
H     1.3    1.5   -1.6
