          12
 frame:           90
C    -0.4    1.2    0.1
N    -1.2   -0.0   -0.0
C    -0.4   -1.2    0.1
C     1.0   -0.7   -0.1
C     1.0    0.7   -0.0
H    -0.5    1.7    1.1
H    -0.6    1.9   -0.7
H    -1.7    0.0   -1.0
H    -0.6   -1.9   -0.7
H    -0.5   -1.7    1.1
H     1.9   -1.3   -0.1
H     1.9    1.3   -0.1
