          14
 frame:         6310
N     0.5    0.6   -0.0
C     1.8    0.2    0.1
C     2.9    1.0   -0.1
C     4.2    0.5    0.1
O     4.4   -0.7    0.4
C     5.4    1.4   -0.1
O     6.6    0.7    0.1
H    -0.3   -0.1    0.1
H     0.2    1.6   -0.3
H     1.9   -0.8    0.3
H     2.8    2.1   -0.3
H     5.3    2.2    0.6
H     5.3    1.8   -1.1
H     6.3   -0.2    0.3
