          21
 frame:         1217
C     3.0   -0.8   -1.1
C     2.5    0.0    0.1
C     3.1    1.4    0.1
C     2.5    2.2    1.3
C     4.6    1.4    0.3
C     5.5    1.5   -1.0
C     5.4    2.7   -0.1
H     2.5   -1.8   -1.1
H     4.1   -1.0   -1.1
H     2.7   -0.3   -2.1
H     2.8   -0.5    1.0
H     1.4    0.1    0.1
H     2.8    1.9   -0.8
H     2.7    1.7    2.3
H     1.4    2.2    1.2
H     2.9    3.2    1.4
H     5.0    0.9    1.1
H     5.0    1.5   -1.9
H     6.4    0.9   -0.9
H     6.3    3.0    0.5
H     4.8    3.5   -0.5
