          16
 frame:          519
C     1.9   -0.1   -0.4
C     3.2   -0.3    0.4
N     4.1    0.8    0.2
C     5.3    0.9    0.8
C     6.2    2.0    0.3
N     5.8    0.1    1.7
H     1.2   -0.9   -0.3
H     2.1   -0.1   -1.5
H     1.4    0.8   -0.2
H     3.7   -1.2    0.1
H     2.9   -0.3    1.4
H     4.0    1.4   -0.7
H     5.7    3.0    0.5
H     6.4    2.0   -0.8
H     7.2    2.0    0.8
H     5.1   -0.6    1.9
