          15
 frame:         5250
C     1.1   -0.1   -0.4
C     2.6    0.2   -0.2
C     3.4   -0.9   -0.9
O     3.8   -0.8   -2.0
C     2.8    1.7   -0.7
N     2.9    1.8   -2.1
N     3.0    2.7    0.1
H     0.5    0.6    0.2
H     0.8   -1.1   -0.0
H     0.8   -0.1   -1.4
H     2.8    0.2    0.8
H     3.4   -1.8   -0.3
H     3.3    1.0   -2.6
H     3.2    2.7   -2.4
H     2.8    2.4    1.1
