          19
 frame:         1488
C     2.8   -0.9   -1.1
C     2.5   -0.1    0.2
C     3.0    1.4    0.2
C     2.4    2.2    1.3
C     4.5    1.5    0.1
C     5.2    0.8    1.3
C     5.7    0.3    2.2
H     2.4   -1.9   -1.0
H     3.9   -1.1   -1.1
H     2.5   -0.4   -2.0
H     2.8   -0.6    1.1
H     1.4    0.0    0.2
H     2.6    1.9   -0.8
H     2.8    1.8    2.3
H     1.3    2.2    1.3
H     2.8    3.2    1.3
H     4.8    2.5    0.1
H     4.9    1.0   -0.8
H     6.2   -0.2    3.1
