          13
 frame:         3297
C     1.1   -0.1    0.2
C     2.4    0.0   -0.1
C     3.2    1.3   -0.1
C     4.6    0.8   -0.6
O     5.5    1.5   -0.8
C     4.5   -0.7   -0.7
O     3.2   -1.1   -0.4
H     0.6   -1.1    0.2
H     0.5    0.8    0.4
H     3.3    1.8    0.9
H     2.8    2.1   -0.8
H     4.7   -1.0   -1.8
H     5.2   -1.2   -0.1
