          13
 frame:         3064
C     0.6    1.2    0.7
C    -0.9    0.8    0.5
C    -0.8    0.0   -0.8
O     0.5    0.0   -1.3
C     1.2    0.0   -0.0
O     0.6   -1.1    0.7
C    -0.8   -0.7    0.5
H     0.8    2.2    0.2
H     0.8    1.3    1.7
H    -1.8    1.4    0.8
H    -1.6   -0.0   -1.6
H     2.2   -0.1   -0.1
H    -1.6   -1.4    0.9
