          15
 frame:          330
C     0.4    1.3    0.3
C    -1.1    1.1   -0.1
C    -1.4   -0.4   -0.0
C    -0.4   -1.3    0.1
C     1.0   -1.0    0.0
N     1.3    0.4   -0.4
H     0.7    2.3    0.0
H     0.5    1.2    1.4
H    -1.2    1.4   -1.1
H    -1.7    1.6    0.6
H    -2.4   -0.7    0.0
H    -0.7   -2.4    0.2
H     1.5   -1.2    1.0
H     1.5   -1.7   -0.7
H     2.2    0.6   -0.3
