          19
 frame:         3671
C     1.0   -0.1    0.1
C     2.5    0.2    0.1
C     2.9    1.6    0.0
C     2.0    2.6   -0.1
C     4.4    1.9    0.1
C     4.9    3.3   -0.1
O     4.8    1.4    1.4
H     0.8   -1.2    0.1
H     0.5    0.2   -0.8
H     0.5    0.3    1.0
H     2.9   -0.3   -0.8
H     3.0   -0.3    0.9
H     0.9    2.5   -0.1
H     2.3    3.7   -0.1
H     4.9    1.2   -0.6
H     4.4    4.0    0.6
H     4.6    3.6   -1.1
H     6.0    3.3   -0.0
H     4.4    1.9    2.1
