          15
 frame:         6194
N     2.1   -0.4   -1.4
C     2.1    0.2   -0.0
C     3.2    1.2    0.0
C     3.0    2.6   -0.7
C     3.1    3.2    0.7
O     3.0    4.4    1.1
N     3.3    2.0    1.3
H     1.3   -1.0   -1.5
H     2.9   -1.0   -1.5
H     2.3   -0.6    0.8
H     1.2    0.7    0.2
H     4.2    0.8   -0.2
H     2.0    2.6   -1.2
H     3.8    2.9   -1.4
H     3.5    1.8    2.2
