          13
 frame:         7154
N     2.4   -0.7   -1.4
C     2.5   -0.1    0.0
C     3.0    1.3    0.0
N     2.3    2.4    0.0
C     3.0    3.5   -0.0
C     4.4    3.3   -0.0
S     4.8    1.6    0.0
H     2.0   -1.6   -1.3
H     3.4   -0.8   -1.7
H     3.1   -0.7    0.7
H     1.5   -0.1    0.4
H     2.5    4.5   -0.1
H     5.2    4.1   -0.1
