          14
 frame:         5644
C     2.9   -1.2    0.5
N     2.4   -0.0   -0.2
C     3.1    1.2   -0.1
C     2.6    2.5   -0.1
O     3.6    3.4   -0.1
C     4.8    2.6    0.1
C     4.5    1.3    0.1
H     2.2   -2.0    0.4
H     3.1   -1.1    1.6
H     3.9   -1.5    0.0
H     1.4    0.1    0.0
H     1.6    2.9   -0.3
H     5.7    3.2    0.1
H     5.3    0.5    0.2
