          15
 frame:         3155
C     1.1    0.0    0.6
C     2.4   -0.0    0.0
C     2.7    0.7   -1.3
O     4.0    1.1   -1.6
C     4.7   -0.0   -1.7
C     4.0   -1.2   -1.6
C     2.6   -0.8   -1.3
H     0.9    0.9    1.3
H     0.8   -0.8    1.3
H     0.3    0.1   -0.1
H     3.3   -0.1    0.7
H     1.9    1.3   -1.7
H     5.8    0.1   -1.9
H     4.4   -2.2   -1.7
H     1.8   -1.4   -1.7
