          14
 frame:         6747
O     2.8   -1.0   -0.7
C     2.2    0.2   -0.0
C     1.8   -0.3    1.3
N     1.4   -0.6    2.4
C     3.2    1.3    0.1
C     3.4    2.3   -1.1
C     2.7    2.8    0.2
H     3.3   -0.6   -1.5
H     1.3    0.5   -0.5
H     4.1    1.1    0.7
H     2.7    2.1   -1.9
H     4.4    2.6   -1.3
H     3.2    3.4    0.9
H     1.6    2.9    0.2
