          14
 frame:         2105
C     0.9    0.1   -0.1
C     2.3    0.1   -0.3
C     3.2    0.9    0.3
C     4.7    0.9    0.1
C     5.5    1.7    0.8
C     5.2   -0.0   -0.8
N     5.6   -0.8   -1.6
H     0.5   -0.9    0.2
H     0.3    0.3   -1.0
H     0.6    0.8    0.7
H     2.7   -0.6   -1.1
H     2.8    1.6    1.1
H     5.1    2.4    1.6
H     6.6    1.7    0.7
