          18
 frame:         5721
C     1.3   -0.7    0.2
N     2.7   -0.3    0.3
C     2.9    1.1   -0.2
C     4.3    1.5   -0.1
C     5.1    1.8   -1.2
O     6.4    2.2   -1.3
C     7.1    2.3   -0.1
H     1.3   -1.8    0.5
H     0.9   -0.7   -0.8
H     0.7   -0.1    0.9
H     3.3   -0.9   -0.2
H     2.3    1.8    0.4
H     2.5    1.2   -1.3
H     4.8    1.5    0.8
H     4.6    1.8   -2.2
H     8.1    2.7   -0.3
H     7.1    1.3    0.4
H     6.6    3.0    0.6
