          12
 frame:         2150
C     0.9   -0.0    0.0
C     2.4    0.0    0.0
C     3.6    0.1    0.0
C     5.0    0.1    0.0
C     5.8    1.2   -0.0
C     7.2    1.1   -0.0
N     8.4    1.1   -0.0
H     0.5    1.0    0.0
H     0.6   -0.6    0.9
H     0.6   -0.6   -0.9
H     5.5   -0.9    0.0
H     5.3    2.2   -0.0
