          13
 frame:         6116
N     0.9   -0.2   -0.0
C     2.4   -0.0   -0.0
C     3.2    1.1    0.1
C     4.5    0.7    0.0
O     5.7    1.4    0.1
C     4.5   -0.7   -0.1
N     3.2   -1.1   -0.1
H     0.5    0.3   -0.8
H     0.5    0.1    0.8
H     2.8    2.1    0.2
H     5.4    2.3    0.2
H     5.3   -1.4   -0.2
H     2.8   -2.1   -0.2
