          15
 frame:         6444
N     1.3   -0.1    0.7
N     2.6    0.1    0.3
C     2.9    1.3   -0.1
C     1.9    2.5   -0.1
O     1.3    2.8    1.1
C     4.3    1.6   -0.4
C     5.2    0.7   -0.7
H     0.6    0.4    0.0
H     1.1   -1.1    0.7
H     1.1    2.2   -0.9
H     2.4    3.4   -0.5
H     1.1    1.9    1.6
H     4.6    2.7   -0.4
H     5.0   -0.4   -0.8
H     6.3    1.0   -0.9
