          16
 frame:         5238
C     0.9    0.2    0.1
C     2.3   -0.2   -0.3
C     3.4    0.8   -0.0
O     3.1    1.9    0.5
C     4.8    0.5   -0.3
C     5.2   -0.6   -0.9
N     6.5   -0.9   -1.2
H     0.1   -0.6   -0.1
H     0.6    1.1   -0.4
H     0.8    0.5    1.2
H     2.3   -0.5   -1.4
H     2.6   -1.2    0.2
H     5.5    1.3   -0.1
H     4.5   -1.4   -1.1
H     7.2   -0.3   -0.9
H     6.8   -1.9   -1.4
