          12
 frame:         7010
C     2.7   -1.1    0.4
C     2.1    0.1    0.2
C     2.9    1.3    0.1
C     2.4    2.6   -0.2
S     3.6    3.8   -0.2
C     4.8    2.5    0.1
N     4.3    1.3    0.2
H     2.0   -2.0    0.5
H     3.8   -1.2    0.6
H     1.1    0.2    0.0
H     1.3    2.8   -0.3
H     5.8    2.8    0.2
