          15
 frame:         3234
C     0.9    0.0    0.2
C     2.4    0.1   -0.0
C     3.2    1.2    0.1
C     4.6    1.1   -0.1
C     5.2   -0.1    0.1
O     4.5   -1.2    0.3
C     3.2   -1.2   -0.3
H     0.7   -0.6    1.0
H     0.5   -0.4   -0.7
H     0.5    1.0    0.3
H     2.7    2.2    0.2
H     5.2    2.0   -0.1
H     6.3   -0.2    0.2
H     2.7   -2.1    0.1
H     3.3   -1.3   -1.4
