          16
 frame:         6508
O     1.1    0.1    0.5
C     2.3    0.0    0.1
C     3.0   -1.3   -0.1
C     4.0   -1.3   -1.2
C     4.9   -0.0   -1.2
N     4.0    1.1   -1.2
C     3.1    1.3   -0.1
H     2.3   -2.1   -0.1
H     3.5   -1.5    0.9
H     4.7   -2.2   -1.2
H     3.5   -1.3   -2.2
H     5.5   -0.0   -0.2
H     5.6   -0.0   -2.0
H     4.6    2.0   -1.4
H     3.7    1.4    0.9
H     2.5    2.1   -0.2
