          17
 frame:         4252
C     2.6   -0.2    1.3
O     2.4    0.2   -0.0
C     2.8    1.5   -0.3
O     4.3    1.5   -0.2
C     4.9    2.7   -0.5
C     4.3    3.9   -0.7
C     5.1    5.2   -0.9
H     2.1   -1.2    1.4
H     2.1    0.5    2.0
H     3.7   -0.3    1.5
H     2.5    2.2    0.5
H     2.5    1.8   -1.2
H     6.0    2.6   -0.4
H     3.2    4.0   -0.8
H     6.2    5.0   -0.8
H     4.8    6.0   -0.2
H     4.9    5.6   -1.9
