          15
 frame:         4494
O     3.8   -1.2    0.9
C     2.9   -0.4    0.2
C     3.3    1.1    0.2
C     3.4    1.6    1.6
C     2.8    2.8    2.0
C     4.7    1.2   -0.5
O     4.9    1.7   -1.6
H     3.5   -2.1    0.9
H     1.8   -0.4    0.6
H     2.8   -0.7   -0.9
H     2.6    1.7   -0.4
H     4.0    1.0    2.3
H     2.3    3.4    1.3
H     2.9    3.1    3.0
H     5.6    0.8    0.1
