          16
 frame:         4819
C     0.9   -0.0    0.4
C     2.3   -0.0   -0.2
N     3.3    1.0    0.3
C     4.1   -0.0    1.0
C     5.6   -0.0    0.7
C     3.3   -1.1    0.4
O     3.3   -2.3    0.3
H     0.3   -0.9    0.1
H     0.4    0.9    0.1
H     0.9   -0.0    1.5
H     2.3   -0.1   -1.3
H     2.9    1.7    0.9
H     4.0   -0.0    2.1
H     5.8   -0.0   -0.4
H     6.1   -0.9    1.1
H     6.1    0.9    1.1
