          15
 frame:         3299
C     1.0    0.2    0.2
C     2.4    0.0   -0.1
C     3.2   -1.1   -0.3
C     2.9   -2.5   -0.2
O     4.5   -0.7   -0.7
C     4.5    0.7   -0.5
O     3.2    1.1   -0.5
H     0.5   -0.7    0.4
H     0.5    0.8   -0.6
H     0.9    0.8    1.1
H     3.5   -3.0    0.5
H     3.1   -3.0   -1.2
H     1.9   -2.7    0.1
H     5.1    1.2   -1.2
H     5.0    0.8    0.6
