          15
 frame:         3972
C     0.9    0.8    0.1
C     2.2    0.6   -0.1
O     3.1    1.5    0.3
C     4.4    1.2    0.0
C     5.4    2.1    0.3
C     6.8    1.9    0.1
C     7.8    2.7    0.4
H     0.2   -0.0   -0.2
H     0.5    1.7    0.6
H     2.6   -0.3   -0.6
H     4.6    0.3   -0.5
H     5.1    3.1    0.8
H     7.0    0.9   -0.4
H     7.6    3.7    0.8
H     8.8    2.5    0.2
