          18
 frame:         1548
C    -1.8    0.8    0.2
C    -1.7   -0.7   -0.3
N    -0.3   -0.6    0.0
C     1.0   -1.1   -0.5
C     1.9    0.1    0.0
C     1.0    1.3    0.5
C    -0.3    0.8   -0.2
H    -2.5    1.5   -0.4
H    -2.0    0.8    1.3
H    -1.9   -0.7   -1.4
H    -2.3   -1.5    0.2
H     1.3   -2.1   -0.2
H     1.0   -1.1   -1.6
H     2.5   -0.3    0.8
H     2.6    0.4   -0.8
H     0.9    1.3    1.6
H     1.4    2.2    0.1
H    -0.2    1.1   -1.3
