          14
 frame:         6935
C     0.9   -0.0   -0.0
C     2.4   -0.0   -0.0
C     3.2    1.1   -0.0
C     2.8    2.5    0.0
C     4.6    0.7   -0.0
N     4.8   -0.7   -0.0
S     3.3   -1.4   -0.0
H     0.5    1.0    0.0
H     0.5   -0.6    0.9
H     0.5   -0.5   -0.9
H     3.7    3.2    0.0
H     2.2    2.8    0.9
H     2.2    2.8   -0.9
H     5.4    1.3   -0.0
