          14
 frame:         2411
C     1.0   -0.1    0.1
C     2.5    0.0   -0.0
C     3.0   -0.7   -1.2
N     3.4   -1.2   -2.1
C     3.0    1.5   -0.0
N     3.1    2.1   -1.3
N     3.1    2.2    1.1
H     0.6    0.4    1.0
H     0.7   -1.1    0.1
H     0.5    0.4   -0.8
H     3.0   -0.4    0.9
H     3.3    1.5   -2.0
H     3.5    3.0   -1.3
H     2.9    1.7    1.9
