          20
 frame:         2098
C     0.5   -0.4    0.2
C     2.0   -0.0    0.2
C     2.5    1.2    0.0
C     1.8    2.4   -0.3
C     4.0    1.3    0.0
C     4.6    2.2    1.2
N     6.0    2.3    1.1
H     0.3   -1.2   -0.5
H    -0.1    0.5    0.0
H     0.2   -0.8    1.2
H     2.7   -0.9    0.4
H     0.7    2.2   -0.4
H     2.1    2.9   -1.2
H     1.9    3.2    0.5
H     4.4    1.8   -0.9
H     4.5    0.3    0.1
H     4.2    1.7    2.2
H     4.1    3.2    1.2
H     6.5    1.4    1.3
H     6.4    2.9    1.9
