          17
 frame:          502
C     3.0   -1.1   -0.5
C     2.5    0.2    0.1
N     3.5    1.3    0.1
C     3.5    2.1   -1.1
C     3.0    2.6    0.2
C     3.7    3.6    1.1
H     2.3   -1.9   -0.5
H     4.0   -1.4   -0.0
H     3.3   -0.9   -1.6
H     2.2   -0.0    1.2
H     1.6    0.5   -0.4
H     2.8    1.9   -1.9
H     4.5    2.4   -1.4
H     1.9    2.7    0.3
H     4.8    3.4    1.0
H     3.5    3.5    2.2
H     3.5    4.6    0.8
