          17
 frame:         3908
C     0.7    2.3    0.2
C     2.2    2.4    0.2
C     3.0    1.3    0.1
O     4.4    1.3    0.0
C     5.1    2.6    0.0
C     6.5    2.3   -0.1
O     6.9    1.7   -1.4
H     0.3    2.7    1.2
H     0.4    1.2    0.2
H     0.2    2.8   -0.6
H     2.6    3.4    0.2
H     2.6    0.3    0.1
H     4.9    3.1    1.0
H     4.7    3.2   -0.8
H     6.9    1.6    0.7
H     7.1    3.2   -0.1
H     6.3    0.8   -1.4
