          15
 frame:         5415
C     1.0   -0.1    0.4
C     2.4   -0.1    0.1
N     3.1   -1.1   -0.3
N     2.4   -2.2   -0.7
C     3.3    1.1    0.4
C     2.8    2.5    0.2
O     2.9    2.0    1.5
H     0.7    0.9    0.9
H     0.6   -0.9    1.0
H     0.4   -0.1   -0.6
H     3.0   -3.0   -0.6
H     1.5   -2.4   -0.2
H     4.3    0.9    0.3
H     1.8    2.7   -0.2
H     3.5    3.3   -0.1
