          14
 frame:         6808
O     1.0    0.6    0.8
C     2.0    0.1    0.1
O     1.9   -0.9   -0.5
C     3.2    1.1   -0.1
C     2.8    2.5   -0.4
N     2.8    2.7    1.0
C     3.7    1.6    1.2
H     1.3    1.5    1.2
H     4.0    0.6   -0.8
H     1.9    2.7   -1.0
H     3.7    3.1   -0.9
H     3.0    3.7    1.4
H     4.8    1.9    1.2
H     3.6    1.0    2.1
