          18
 frame:         5225
C    -0.2    3.7    0.8
C     1.1    3.7    0.1
C     1.7    2.6   -0.4
O     2.9    2.4   -1.1
C     3.6    3.6   -1.2
C     4.9    3.3   -2.0
N     4.6    2.8   -3.3
H    -0.2    4.1    1.8
H    -0.6    2.7    0.8
H    -1.0    4.3    0.2
H     1.6    4.7   -0.0
H     1.2    1.6   -0.3
H     3.9    4.1   -0.2
H     3.1    4.4   -1.8
H     5.5    2.5   -1.4
H     5.5    4.2   -2.0
H     4.0    2.0   -3.3
H     5.5    2.6   -3.8
