          14
 frame:          813
C     0.9   -0.6    0.3
C     2.3   -0.0    0.1
C     2.4    1.5   -0.2
O     1.7    1.8   -1.4
C     1.8    2.3    0.9
O     0.9    3.2    0.7
H     0.9   -1.7    0.5
H     0.3   -0.4   -0.7
H     0.3   -0.1    1.1
H     2.9   -0.5   -0.7
H     2.9   -0.1    1.1
H     3.4    1.8   -0.2
H     1.1    2.5   -1.3
H     2.2    2.2    1.9
