          16
 frame:         5815
C     1.2   -0.4   -0.8
N     2.6   -0.1   -0.3
C     3.5    0.6   -1.0
O     3.3    1.1   -2.1
C     4.9    0.7   -0.3
C     5.3    2.1   -0.3
O     4.9    0.1    1.0
H     1.1   -1.5   -0.9
H     1.1    0.1   -1.7
H     0.5   -0.1   -0.1
H     2.9   -0.5    0.6
H     5.6    0.1   -1.0
H     4.7    2.8    0.3
H     5.3    2.6   -1.4
H     6.4    2.2    0.0
H     4.8    0.8    1.6
