          15
 frame:         4127
C     2.3   -0.3   -1.7
O     2.2    0.5   -0.5
C     3.3    1.4   -0.2
O     3.4    1.6    1.1
C     3.0    2.9    1.5
C     2.8    3.6    0.2
C     3.0    2.7   -0.8
H     1.5   -1.0   -1.7
H     3.3   -0.8   -1.7
H     2.2    0.4   -2.6
H     4.2    0.9   -0.6
H     3.8    3.4    2.1
H     2.1    2.9    2.1
H     2.5    4.6    0.1
H     2.9    2.9   -1.9
