          13
 frame:         6948
C     0.9    0.0   -0.0
C     2.5    0.1   -0.0
C     3.2    1.2    0.0
S     4.9    0.9    0.0
C     4.6   -0.8    0.0
O     5.7   -1.6    0.0
C     3.3   -1.1    0.0
H     0.5    1.0   -0.0
H     0.6   -0.5    0.9
H     0.6   -0.5   -0.9
H     2.8    2.2    0.0
H     5.4   -2.6    0.0
H     2.9   -2.1    0.0
