          12
 frame:         2088
C     1.6   -0.6    1.1
C     2.5   -0.1    0.1
C     3.2    1.2    0.2
C     4.6    1.0    0.0
C     5.8    0.9   -0.1
C     7.2    0.7   -0.2
N     8.3    0.6   -0.3
H     1.1   -1.5    1.0
H     1.5    0.0    2.0
H     2.6   -0.7   -0.8
H     3.0    1.7    1.1
H     2.9    1.8   -0.7
