          18
 frame:         5867
C     2.0   -0.5   -1.1
O     1.8    0.6   -0.2
C     3.0    1.3    0.1
C     3.5    2.4   -0.9
C     2.9    2.8    0.4
C     1.6    3.5    0.4
N     3.9    3.4    1.4
H     1.0   -0.9   -1.2
H     2.7   -1.2   -0.6
H     2.4   -0.1   -2.0
H     3.8    0.8    0.6
H     2.9    2.5   -1.8
H     4.6    2.4   -1.1
H     0.9    3.0   -0.3
H     1.7    4.6    0.1
H     1.1    3.5    1.4
H     4.8    3.0    1.3
H     3.5    3.2    2.3
