          20
 frame:         5114
C     2.4   -1.0    1.6
C     2.2   -0.1    0.4
C     2.9    1.3    0.4
C     2.3    2.2    1.5
O     3.0    3.5    1.5
N     4.4    1.2    0.7
C     5.2    0.7   -0.4
H     1.9   -2.0    1.5
H     2.0   -0.6    2.5
H     3.5   -1.2    1.8
H     1.1    0.1    0.2
H     2.6   -0.7   -0.5
H     2.8    1.8   -0.5
H     2.3    1.7    2.5
H     1.2    2.4    1.2
H     3.9    3.2    1.3
H     4.6    0.7    1.5
H     5.0    1.4   -1.3
H     5.0   -0.3   -0.7
H     6.2    0.8   -0.1
