          12
 frame:         6771
O     1.3   -0.1   -0.3
C     2.5    0.1   -0.1
N     3.1    1.2    0.5
C     4.0    2.1   -0.2
C     2.6    2.6    0.2
C     2.5    3.5    1.3
C     2.3    4.2    2.3
H     3.3   -0.7   -0.4
H     4.2    2.0   -1.3
H     4.9    2.5    0.4
H     1.9    2.7   -0.6
H     2.2    4.9    3.1
