          13
 frame:         1020
C     1.0    0.0    0.0
C     2.5   -0.0    0.0
C     3.0   -0.8   -1.2
O     4.5   -0.9   -1.2
C     3.1    1.3    0.0
N     3.5    2.4    0.0
H     0.6    0.5    0.9
H     0.6   -1.0    0.1
H     0.6    0.5   -0.8
H     2.9   -0.6    0.9
H     2.7   -0.3   -2.1
H     2.6   -1.8   -1.2
H     4.8   -0.0   -1.4
