          14
 frame:         6548
O     0.8   -0.0    0.2
C     2.2   -0.0    0.0
C     3.1    1.0    0.8
N     4.0   -0.0    1.3
C     3.1   -1.1    0.8
C     2.5    0.0   -1.4
C     2.9    0.0   -2.6
H     0.6   -0.1    1.1
H     2.5    1.4    1.7
H     3.5    1.9    0.3
H     4.9    0.0    0.7
H     3.5   -1.9    0.2
H     2.5   -1.5    1.6
H     3.1    0.1   -3.6
