          14
 frame:         6416
N    -0.2    1.2    0.9
C     0.8    1.6    0.1
O     0.9    2.7   -0.5
C     2.0    0.6    0.1
O     1.7   -0.6    0.8
C     2.7   -1.5    0.9
C     3.9   -1.5    0.4
H    -0.2    0.3    1.3
H    -1.0    1.8    0.9
H     2.9    1.1    0.5
H     2.2    0.4   -0.9
H     2.4   -2.4    1.5
H     4.3   -0.6   -0.2
H     4.6   -2.3    0.5
