          17
 frame:         4496
O     2.6   -0.7    0.5
C     2.3    0.6    1.0
C     2.9    1.6    0.0
C     4.4    1.6   -0.1
C     5.2    2.6    0.2
C     6.7    2.5    0.1
O     7.2    3.4   -0.9
H     2.3   -1.4    1.1
H     2.7    0.7    2.0
H     1.2    0.8    1.1
H     2.6    2.6    0.3
H     2.5    1.4   -1.0
H     4.8    0.6   -0.3
H     4.8    3.6    0.5
H     7.0    1.5   -0.1
H     7.2    2.8    1.0
H     6.8    3.2   -1.7
