          15
 frame:         6800
O     1.7   -0.7    3.0
C     2.4   -0.1    2.2
N     3.8   -0.3    2.0
N     4.5    0.4    1.1
C     5.7    1.2    1.5
C     6.4    0.8    0.2
C     5.3   -0.4    0.1
H     2.0    0.7    1.4
H     4.2   -0.9    2.6
H     6.2    0.7    2.4
H     5.5    2.2    1.7
H     6.2    1.5   -0.6
H     7.4    0.5    0.2
H     4.8   -0.6   -0.9
H     5.7   -1.3    0.6
