          13
 frame:         4663
C     1.1    0.1    0.1
C     2.5   -0.1   -0.0
N     3.4    1.0    0.2
N     4.6    0.4    0.1
O     5.7    1.2    0.1
C     4.6   -0.9   -0.2
C     3.3   -1.3   -0.2
H     0.8    1.1   -0.2
H     0.7   -0.0    1.1
H     0.5   -0.6   -0.6
H     5.3    2.1    0.3
H     5.5   -1.4   -0.3
H     2.9   -2.3   -0.4
