          12
 frame:          928
O     1.7   -0.3    1.5
C     2.4   -0.1    0.2
C     2.9    1.3    0.3
C     4.2    1.7    0.0
C     4.7    3.0   -0.0
C     5.1    4.1   -0.1
H     1.2   -1.1    1.3
H     1.7   -0.2   -0.6
H     3.2   -0.8    0.1
H     2.1    2.1    0.5
H     4.9    0.9   -0.2
H     5.5    5.1   -0.1
