          14
 frame:         4639
C     1.0   -0.0   -0.0
C     2.5    0.1    0.0
C     3.3    1.1    0.0
C     4.7    0.7    0.0
C     4.6   -0.7    0.0
O     5.6   -1.6    0.0
N     3.3   -1.1    0.0
H     0.5    1.0   -0.0
H     0.6   -0.6    0.9
H     0.6   -0.6   -0.9
H     3.0    2.2    0.0
H     5.6    1.3    0.0
H     5.3   -2.5    0.0
H     2.9   -2.0    0.0
