          15
 frame:         3804
C     0.9   -0.1    0.0
C     2.4   -0.2    0.1
C     3.0   -1.4    0.4
C     3.2    1.0   -0.3
O     2.8    1.7   -1.4
C     3.3    1.9    1.0
O     3.0    3.0    0.9
H     0.6    0.8    0.7
H     0.4   -1.0    0.3
H     0.6    0.2   -1.0
H     2.4   -2.3    0.7
H     4.1   -1.5    0.4
H     4.3    0.6   -0.4
H     2.6    2.6   -1.0
H     3.7    1.4    1.9
