          13
 frame:          996
C     1.0   -0.0   -0.1
C     2.5   -0.1   -0.0
C     3.1   -1.3   -0.0
C     3.2    1.2    0.2
N     4.5    1.2   -0.3
O     2.7    2.1    0.8
H     0.7    0.6   -1.0
H     0.6    0.5    0.8
H     0.5   -1.0   -0.2
H     2.6   -2.2   -0.1
H     4.2   -1.4    0.1
H     4.8    0.6   -1.0
H     5.0    2.2   -0.2
