          13
 frame:         3730
C     1.6   -0.7    0.2
C     2.6   -0.1    0.7
C     3.1    1.3    0.4
C     3.1    2.2    1.6
O     2.6    2.0    2.6
C     4.5    1.2   -0.2
C     5.6    1.3   -0.5
H     1.2   -1.7    0.5
H     1.0   -0.2   -0.6
H     3.2   -0.6    1.5
H     2.5    1.7   -0.4
H     3.5    3.2    1.3
H     6.7    1.2   -0.9
