          13
 frame:         2002
C     1.8   -0.3   -1.3
C     2.2    0.2   -0.1
C     3.3    1.1    0.1
N     3.9    1.9   -1.0
C     3.0    2.6   -0.0
C     3.7    3.6    0.9
N     4.2    4.3    1.6
H     0.9   -1.0   -1.4
H     2.2    0.1   -2.2
H     1.8   -0.2    0.8
H     4.1    0.9    0.8
H     3.4    1.8   -1.9
H     2.0    2.9   -0.3
