          18
 frame:         2069
C     1.7   -0.1    0.5
C     2.6    0.1   -0.8
C     2.1   -0.5   -2.0
C     1.0   -1.2   -2.2
C     2.9    1.6   -1.0
C     4.0    2.3   -0.4
N     4.0    1.9   -1.8
H     2.2    0.3    1.3
H     1.6   -1.2    0.7
H     0.7    0.3    0.3
H     3.6   -0.3   -0.6
H     2.7   -0.3   -2.9
H     0.3   -1.5   -1.4
H     0.7   -1.6   -3.2
H     1.9    2.1   -1.2
H     4.7    1.8    0.3
H     3.8    3.4   -0.1
H     3.9    2.8   -2.4
