          14
 frame:         6312
N     1.8   -0.6   -1.6
C     3.0   -0.5   -0.6
C     2.8    0.8    0.1
C     3.8    1.7    0.2
O     3.6    2.9    0.9
C     4.7    3.8    0.9
O     5.7    3.8    0.2
H     1.8   -1.5   -2.0
H     1.9    0.1   -2.3
H     4.0   -0.5   -1.1
H     2.9   -1.3    0.1
H     1.9    1.0    0.7
H     4.8    1.7   -0.4
H     4.4    4.7    1.5
