          18
 frame:         5314
C     2.7   -0.9   -0.6
C     2.3    0.4    0.1
N     3.4    1.4   -0.0
C     3.3    2.3   -1.2
C     3.0    2.8    0.2
C     4.0    3.7    1.0
O     5.3    3.2    0.8
H     1.9   -1.6   -0.5
H     3.7   -1.3   -0.2
H     2.8   -0.7   -1.7
H     2.2    0.2    1.2
H     1.4    0.8   -0.2
H     2.4    2.2   -1.9
H     4.2    2.6   -1.7
H     1.9    3.0    0.4
H     3.7    3.6    2.0
H     3.9    4.7    0.7
H     5.2    2.2    0.7
