          12
 frame:         5039
C     1.4    0.3   -0.8
C     2.4    0.4    0.0
C     3.8   -0.1   -0.2
C     4.0   -0.8   -1.4
N     4.1   -1.4   -2.5
C     2.2    1.2    1.3
O     3.1    1.4    2.1
H     0.4    0.8   -0.6
H     1.5   -0.2   -1.8
H     4.1   -0.8    0.7
H     4.6    0.7   -0.1
H     1.2    1.6    1.4
