          15
 frame:         5538
C     0.8   -0.5    0.2
C     2.3   -0.2   -0.0
O     2.7   -0.8   -1.3
C     2.7    1.2    0.1
N     3.3    1.8   -0.8
N     3.6    3.1   -0.6
C     4.2    3.7   -1.6
H     0.4   -0.1    1.1
H     0.5   -1.5    0.1
H     0.2    0.1   -0.6
H     2.8   -0.8    0.8
H     3.2   -0.1   -1.7
H     2.4    1.7    1.0
H     4.5    4.7   -1.4
H     4.5    3.1   -2.5
