          19
 frame:         1469
C     2.3   -0.5    1.4
C     2.2    0.2    0.0
C     2.9    1.5    0.0
C     2.2    2.7    0.0
C     4.4    1.6   -0.0
C     5.2    0.6   -0.1
C     6.7    0.7   -0.2
H     1.8   -1.5    1.4
H     1.7    0.1    2.1
H     3.3   -0.6    1.8
H     1.2    0.3   -0.3
H     2.7   -0.5   -0.7
H     1.1    2.7    0.0
H     2.7    3.7    0.0
H     4.8    2.6    0.0
H     4.8   -0.4   -0.2
H     7.0    1.8   -0.1
H     7.1    0.3   -1.1
H     7.2    0.2    0.7
