          12
 frame:         6177
N     1.0    0.1    0.1
C     2.1    0.0    0.0
C     3.5   -0.0   -0.0
C     4.3   -1.1   -0.1
C     5.8   -0.7   -0.0
C     5.6    0.8   -0.3
O     4.2    1.2   -0.0
H     4.0   -2.2   -0.0
H     6.2   -0.9    1.0
H     6.4   -1.2   -0.8
H     5.9    1.1   -1.3
H     6.2    1.4    0.4
