          14
 frame:         2122
C     0.9    0.4   -0.3
C     2.4    0.1   -0.0
C     2.9   -1.2    0.3
C     2.1   -2.4    0.5
C     2.7   -3.5    0.8
C     3.3    1.2   -0.1
N     4.0    2.1   -0.2
H     0.6    1.2    0.4
H     0.3   -0.5   -0.2
H     0.8    0.8   -1.3
H     3.9   -1.2    0.5
H     1.0   -2.4    0.3
H     3.8   -3.6    1.0
H     2.1   -4.5    0.9
