          14
 frame:         4885
C     1.0   -0.1   -0.0
C     2.5    0.1   -0.1
O     3.1   -0.4   -1.3
C     3.2    1.0   -1.0
C     4.5    1.6   -0.6
C     5.3    2.0   -1.8
N     5.9    2.3   -2.8
H     0.6    0.5    0.8
H     0.7   -1.1    0.2
H     0.5    0.3   -0.9
H     3.0   -0.2    0.8
H     2.5    1.7   -1.6
H     5.1    0.9   -0.1
H     4.4    2.5    0.0
