          19
 frame:         1328
C     2.5   -0.6    1.5
C     2.6    0.0    0.0
C     3.1    1.4   -0.1
C     4.2    1.9   -0.6
C     4.5    3.3   -0.4
C     3.1    3.8    0.0
C     2.4    2.6    0.6
H     2.2   -1.6    1.4
H     1.8    0.0    2.1
H     3.5   -0.5    1.9
H     1.6   -0.1   -0.5
H     3.3   -0.6   -0.6
H     5.0    1.2   -1.1
H     5.2    3.5    0.3
H     4.8    3.8   -1.4
H     2.5    4.2   -0.9
H     3.1    4.7    0.7
H     1.3    2.5    0.3
H     2.4    2.5    1.7
