          14
 frame:         2268
C     0.9   -0.0    0.1
C     2.5   -0.0    0.0
C     3.0   -0.8   -1.2
C     4.4   -1.0   -1.3
N     5.6   -1.2   -1.3
C     3.0    1.4    0.0
C     3.5    2.5    0.0
H     0.6    0.5    1.0
H     0.6   -1.0    0.1
H     0.5    0.5   -0.8
H     2.9   -0.5    0.9
H     2.7   -0.3   -2.1
H     2.5   -1.8   -1.2
H     3.8    3.5    0.0
