          18
 frame:         1693
C     1.0    0.0    0.1
C     2.5   -0.1   -0.0
C     3.0   -1.3   -0.9
C     3.4   -0.7   -2.2
C     3.5    0.6   -2.2
C     3.1    1.2   -0.8
N     4.3    1.9   -0.2
H     0.7    0.9    0.7
H     0.6   -0.9    0.6
H     0.5    0.0   -0.9
H     3.0   -0.1    1.0
H     2.1   -2.0   -1.0
H     3.8   -1.9   -0.4
H     3.7   -1.3   -3.1
H     3.8    1.3   -3.0
H     2.3    2.0   -0.9
H     5.0    1.2   -0.1
H     4.0    2.2    0.7
