          13
 frame:         2414
C     1.5    1.5   -1.4
C     2.5    1.3   -0.8
C     3.6    1.0    0.0
N     4.8    1.1   -0.4
N     5.8    0.8    0.6
C     7.0    0.2   -0.1
C     7.0    1.6    0.3
H     0.6    1.7   -2.0
H     3.4    0.7    1.1
H     6.9    0.0   -1.2
H     7.5   -0.6    0.5
H     7.5    1.9    1.3
H     6.9    2.4   -0.4
