          20
 frame:         2374
C     3.1   -1.7   -0.1
C     2.7   -0.4    0.5
C     3.7    0.8    0.2
N     3.1    2.1    0.6
C     5.1    0.7    0.8
C     6.1    1.5    0.2
C     5.3   -0.0    1.9
H     2.4   -2.5    0.1
H     4.1   -2.1    0.3
H     3.2   -1.7   -1.2
H     2.6   -0.5    1.6
H     1.7   -0.1    0.1
H     3.8    0.8   -0.9
H     2.9    2.1    1.6
H     2.2    2.2    0.1
H     5.8    2.5    0.0
H     6.3    1.1   -0.8
H     7.0    1.5    0.7
H     4.6   -0.7    2.4
H     6.3   -0.1    2.4
