          16
 frame:         5961
C     1.4   -0.3   -0.2
O     2.8   -0.1    0.1
C     3.1    1.3   -0.1
C     4.6    1.5    0.1
C     5.4    0.8   -0.8
N     6.3    1.4   -1.6
O     7.0    0.6   -2.5
H     1.2   -1.4   -0.0
H     1.1   -0.0   -1.2
H     0.7    0.3    0.5
H     2.5    1.9    0.6
H     2.8    1.6   -1.1
H     4.8    1.1    1.2
H     4.8    2.6    0.1
H     5.3   -0.3   -1.0
H     7.6    1.2   -2.9
