          14
 frame:         6722
O     1.3   -0.3    1.1
C     1.9    0.2   -0.2
C     2.8    1.4   -0.0
C     2.2    2.7    0.3
C     0.9    2.9    0.6
N     4.0    1.2   -0.2
O     4.8    2.3   -0.0
H     2.0   -0.4    1.7
H     1.1    0.4   -0.9
H     2.5   -0.6   -0.6
H     2.9    3.5    0.3
H     0.1    2.1    0.6
H     0.5    3.9    0.8
H     5.7    2.0   -0.2
