          19
 frame:         3528
C     2.1   -0.5   -1.4
C     2.5    0.0   -0.0
C     3.3    1.3   -0.1
O     4.5    1.0   -0.7
C     2.6    2.6   -0.6
C     3.1    3.4    0.6
C     3.5    2.0    1.3
H     1.5   -1.5   -1.4
H     3.0   -0.7   -2.0
H     1.5    0.2   -2.0
H     3.0   -0.8    0.5
H     1.5    0.2    0.5
H     5.0    1.8   -0.8
H     1.5    2.5   -0.6
H     2.9    2.9   -1.6
H     4.0    4.0    0.4
H     2.4    4.0    1.1
H     4.5    1.9    1.8
H     2.7    1.7    2.0
