          13
 frame:          994
C     0.9   -0.0   -0.1
C     2.4    0.1   -0.2
C     3.1    1.0    0.4
C     4.6    1.0    0.2
N     5.3    2.1    0.8
O     5.2    0.1   -0.4
H     0.6   -0.9    0.4
H     0.5   -0.0   -1.1
H     0.5    0.8    0.5
H     2.9   -0.7   -0.7
H     2.7    1.9    0.9
H     4.8    2.8    1.3
H     6.3    2.1    0.8
