          15
 frame:         3541
C     0.9    0.0   -0.1
C     2.4   -0.0    0.0
C     3.6   -0.0    0.1
C     5.0   -0.1    0.1
C     5.9   -0.8   -0.9
C     5.9    0.7   -0.8
O     7.0    1.3   -0.3
H     0.6    1.1    0.0
H     0.5   -0.6    0.8
H     0.6   -0.4   -1.0
H     5.5   -0.1    1.1
H     5.3   -1.2   -1.8
H     6.7   -1.3   -0.6
H     5.3    1.3   -1.6
H     7.7    1.3   -0.9
