          12
 frame:         4598
C     2.3   -0.1    0.5
O     1.2    0.5   -0.4
C     2.0    1.7   -0.4
C     2.2    3.0   -0.9
N     3.5    3.3   -0.3
C     4.0    2.3    0.5
C     3.1    1.2    0.4
H     2.7   -0.9    0.1
H     1.9   -0.3    1.5
H     1.7    3.6   -1.5
H     3.9    4.2   -0.4
H     4.9    2.4    1.0
