          17
 frame:         2881
N     1.0   -0.0    0.4
C     2.4    0.0    0.1
C     2.8    1.3   -0.7
N     4.1    1.3   -1.3
C     4.3    0.1   -2.2
C     3.7   -1.2   -1.7
C     2.8   -1.2   -0.7
H     0.7    0.8    1.0
H     0.8   -0.8    0.9
H     3.0    0.1    1.0
H     2.0    1.3   -1.6
H     2.6    2.2   -0.1
H     4.8    1.3   -0.5
H     5.4   -0.0   -2.3
H     4.0    0.4   -3.2
H     3.9   -2.1   -2.2
H     2.4   -2.1   -0.3
