          15
 frame:         6448
N     1.6   -2.5    1.0
N     2.2   -1.3    1.1
C     2.3   -0.6    0.1
C     3.1    0.7    0.1
O     2.2    1.7   -0.3
C     2.8    3.0   -0.4
C     4.0    3.4   -0.1
H     1.1   -2.8    1.9
H     1.0   -2.7    0.2
H     1.9   -0.9   -0.9
H     4.0    0.7   -0.5
H     3.4    0.9    1.2
H     2.0    3.7   -0.8
H     4.7    2.7    0.3
H     4.3    4.4   -0.2
