          12
 frame:          781
C     2.2   -1.4    0.5
C     3.4   -0.9    0.4
C     3.6    0.6    0.3
O     2.6    1.4    0.3
C     5.0    1.1    0.2
C     5.3    2.4    0.1
H     2.1   -2.5    0.5
H     1.3   -0.8    0.5
H     4.3   -1.5    0.3
H     5.8    0.3    0.1
H     4.5    3.1    0.1
H     6.3    2.8   -0.0
