          15
 frame:         1912
C     0.9    0.1   -0.2
C     2.4   -0.1    0.1
N     2.7   -1.2    1.0
C     3.5   -0.9    2.1
N     4.0   -1.7    3.0
C     3.5    0.6    2.1
C     3.0    1.1    1.0
H     0.6   -0.8   -0.8
H     0.8    1.0   -0.8
H     0.3    0.2    0.7
H     3.0   -0.1   -0.8
H     2.8   -2.1    0.6
H     3.8   -2.7    2.8
H     4.0    1.1    2.9
H     2.9    2.1    0.7
