          12
 frame:         2916
N     1.0    0.1   -0.0
C     2.1    0.0   -0.0
C     3.6   -0.0    0.0
C     4.2   -1.2   -0.8
C     4.5   -0.6   -2.1
N     4.5    0.7   -2.0
N     4.2    1.1   -0.7
H     3.9    0.0    1.1
H     3.5   -2.1   -0.8
H     5.1   -1.6   -0.3
H     4.8   -1.1   -3.0
H     3.6    2.0   -0.8
