          17
 frame:         3421
C     1.0   -0.0    0.0
C     2.5   -0.0   -0.0
O     2.9   -0.0    1.4
C     3.0   -1.2   -0.8
C     3.4   -0.7   -2.2
C     3.4    0.7   -2.2
C     3.0    1.2   -0.8
H     0.6    0.0   -1.0
H     0.6    0.9    0.6
H     0.6   -0.9    0.6
H     3.9   -0.0    1.4
H     2.3   -2.0   -0.8
H     3.9   -1.7   -0.3
H     3.6   -1.3   -3.0
H     3.6    1.3   -3.0
H     4.0    1.6   -0.3
H     2.3    2.0   -0.8
