          16
 frame:         5656
C     2.8   -1.1   -0.6
N     2.3    0.2   -0.2
C     3.3    1.2    0.1
C     3.5    2.2   -1.0
O     2.7    2.1   -2.1
C     2.9    2.6    0.3
O     3.7    3.3    1.3
H     2.0   -1.8   -0.8
H     3.5   -1.5    0.1
H     3.3   -0.9   -1.6
H     1.7    0.1    0.6
H     4.2    0.9    0.6
H     4.5    2.6   -1.3
H     2.0    1.4   -1.9
H     1.9    2.9    0.3
H     3.8    4.2    1.0
