          12
 frame:         4681
C     1.0    0.0    0.0
C     2.5   -0.1    0.0
C     3.3   -1.2    0.0
C     4.7   -0.7   -0.0
O     5.7   -1.3   -0.0
N     4.6    0.8   -0.0
C     3.4    1.1    0.0
H     0.5   -0.9    0.0
H     0.6    0.6   -0.9
H     0.6    0.6    0.9
H     3.0   -2.2    0.0
H     3.0    2.1    0.0
