          14
 frame:          850
C     2.0   -0.5   -1.2
O     2.2    0.1    0.0
C     3.0    1.2   -0.0
C     2.4    2.6   -0.5
O     2.8    3.2    0.8
C     3.2    1.9    1.3
H     1.4   -1.4   -1.1
H     3.0   -0.8   -1.7
H     1.5    0.1   -1.9
H     4.0    1.0   -0.6
H     1.3    2.5   -0.5
H     2.8    3.1   -1.4
H     4.2    2.0    1.7
H     2.5    1.6    2.1
