          13
 frame:         6984
C     0.9    0.0    0.0
C     2.4    0.0    0.1
C     3.2    1.1   -0.1
N     2.8    2.4   -0.4
C     4.6    0.7   -0.0
N     4.8   -0.6    0.2
S     3.3   -1.4    0.3
H     0.5    0.7    0.8
H     0.5   -1.0    0.3
H     0.5    0.3   -0.9
H     3.5    3.1   -0.1
H     1.9    2.6   -0.1
H     5.4    1.3   -0.1
