          13
 frame:         3436
C     1.0    0.1    0.1
C     2.3    0.0   -0.1
O     3.1    1.2   -0.4
C     4.4    0.7   -0.8
O     4.5   -0.6   -0.4
C     3.3   -1.1   -0.1
C     3.0   -2.4    0.1
H     0.5   -0.8    0.4
H     0.5    1.0    0.1
H     4.4    0.8   -1.9
H     5.1    1.4   -0.3
H     2.0   -2.8    0.4
H     3.9   -3.1    0.0
