          17
 frame:         3232
C     1.0   -0.1    0.1
C     2.5    0.1   -0.0
C     3.1    1.2    0.1
C     4.6    1.3    0.0
C     5.2   -0.1    0.1
O     4.6   -1.0   -0.7
C     3.2   -1.2   -0.3
H     0.7   -0.8    0.9
H     0.5   -0.4   -0.8
H     0.5    0.9    0.4
H     2.6    2.1    0.3
H     5.0    1.8   -0.9
H     5.0    1.9    0.8
H     6.3   -0.1   -0.2
H     5.2   -0.5    1.2
H     3.2   -1.9    0.5
H     2.7   -1.7   -1.2
