          18
 frame:         1647
C     1.1   -0.1    0.1
C     2.6   -0.1   -0.2
C     3.2   -0.5   -1.5
C     3.2    0.9   -1.1
C     4.5    1.6   -0.8
C     5.8    1.0   -0.6
N     5.5    1.8   -1.8
H     0.8    0.6    0.9
H     0.8   -1.1    0.4
H     0.6    0.1   -0.8
H     3.2   -0.3    0.7
H     2.5   -0.8   -2.3
H     4.1   -1.1   -1.5
H     2.5    1.6   -1.6
H     4.3    2.5   -0.1
H     5.9   -0.1   -0.8
H     6.5    1.4    0.1
H     6.0    2.7   -1.8
