          14
 frame:         6489
O     1.8    0.0    1.5
C     2.5    0.0    0.5
C     3.0   -1.3   -0.2
C     4.0   -0.8   -1.2
N     5.2   -0.0   -0.6
C     4.0    0.7   -1.2
C     3.0    1.2   -0.2
H     2.1   -1.7   -0.7
H     3.4   -2.0    0.6
H     4.2   -1.4   -2.0
H     5.2   -0.0    0.4
H     4.3    1.3   -2.1
H     3.4    2.0    0.5
H     2.2    1.7   -0.7
