          22
 frame:         2673
C     1.0   -0.1   -0.1
N     2.5    0.1   -0.1
C     3.0   -0.8   -1.2
C     3.0    1.5   -0.1
C     2.5    2.3   -1.3
C     2.4    2.2    1.2
C     4.5    1.4    0.0
H     0.6    0.5    0.8
H     0.7   -1.1    0.1
H     0.5    0.3   -1.0
H     2.6   -1.8   -1.0
H     4.1   -0.8   -1.1
H     2.6   -0.5   -2.2
H     2.9    1.8   -2.2
H     2.9    3.3   -1.3
H     1.4    2.4   -1.4
H     2.7    1.6    2.1
H     1.4    2.4    1.2
H     2.9    3.1    1.3
H     4.8    0.8    0.8
H     4.9    2.5    0.2
H     5.0    1.1   -0.9
