          15
 frame:         4340
O     1.3    0.2    0.8
C     2.3    0.1    0.1
C     3.0   -1.3   -0.1
C     4.0   -1.3   -1.2
C     4.9   -0.1   -1.2
C     4.0    1.2   -1.3
O     2.9    1.2   -0.3
H     2.2   -2.0   -0.2
H     3.5   -1.5    0.9
H     4.7   -2.2   -1.1
H     3.5   -1.4   -2.2
H     5.5   -0.0   -0.2
H     5.6   -0.0   -2.0
H     4.5    2.1   -1.1
H     3.5    1.2   -2.3
