          13
 frame:         3278
C     0.9    0.0   -0.1
C     2.2    0.0    0.0
C     3.0    1.2    0.1
C     4.3    1.2    0.3
O     5.1    0.0    0.4
C     4.3   -1.1    0.3
C     3.0   -1.2    0.1
H     0.3   -0.9   -0.2
H     0.3    0.9   -0.2
H     2.5    2.2    0.1
H     5.0    2.0    0.4
H     5.0   -2.0    0.4
H     2.5   -2.2    0.1
