          15
 frame:         2234
C     1.0   -0.1    0.0
C     2.5   -0.1    0.0
C     3.1    1.3    0.0
C     3.5    2.4    0.0
C     4.0    3.8    0.0
N     5.4    3.9    0.1
N     3.3    4.8   -0.1
H     0.6   -1.1   -0.0
H     0.6    0.5   -0.9
H     0.6    0.5    0.9
H     2.9   -0.6   -0.9
H     2.9   -0.6    0.9
H     6.0    3.1   -0.2
H     5.7    4.8   -0.1
H     2.3    4.5   -0.1
