          15
 frame:         3731
C     0.6   -0.1   -0.4
C     1.7   -0.3    0.3
C     2.9    0.7    0.4
C     4.1    0.1   -0.1
O     5.1   -0.2    0.6
C     4.2   -0.1   -1.6
C     5.3   -0.6   -2.2
H    -0.2   -0.9   -0.4
H     0.4    0.8   -1.0
H     1.8   -1.2    0.9
H     3.0    1.0    1.5
H     2.6    1.6   -0.2
H     3.3    0.2   -2.2
H     6.2   -0.8   -1.6
H     5.4   -0.7   -3.3
