          15
 frame:         4295
O     1.9    0.0    1.6
C     2.5    0.0    0.6
C     3.0   -1.3   -0.2
C     3.9   -0.8   -1.2
C     5.2   -0.1   -0.8
C     4.0    0.7   -1.3
C     3.0    1.2   -0.2
H     2.0   -1.7   -0.6
H     3.4   -2.0    0.5
H     4.0   -1.4   -2.2
H     5.4   -0.0    0.3
H     6.0   -0.1   -1.4
H     4.0    1.2   -2.2
H     3.4    2.0    0.5
H     2.1    1.7   -0.7
