          14
 frame:         6934
C     0.8    0.1    0.2
C     2.3    0.0   -0.1
C     3.2    1.0    0.7
N     3.8    0.0    1.7
S     3.3   -1.3    0.7
O     2.5   -2.3    1.5
O     4.4   -1.8   -0.1
H     0.3   -0.8   -0.2
H     0.4    1.0   -0.2
H     0.7    0.1    1.3
H     2.5    0.0   -1.2
H     2.7    1.8    1.2
H     4.0    1.4    0.0
H     4.8    0.1    1.9
