          15
 frame:         6359
N     2.2   -1.5   -0.9
C     2.4   -0.1   -0.8
N     2.0    0.8   -1.6
C     3.0    0.3    0.5
C     4.5   -0.1    0.6
C     5.1   -0.7    1.9
O     4.7   -1.6    0.8
H     2.9   -2.1   -0.4
H     2.0   -1.8   -1.8
H     1.5    0.4   -2.4
H     2.5   -0.1    1.4
H     3.0    1.4    0.6
H     5.2    0.3   -0.1
H     4.5   -0.7    2.8
H     6.2   -0.5    2.0
