          13
 frame:         6339
N     0.9    0.1   -0.1
C     2.3    0.1   -0.1
C     2.9   -1.3   -0.1
O     2.1   -2.2   -1.0
C     3.1    1.2    0.0
C     4.5    1.1    0.1
N     5.6    1.1    0.1
H     0.4    1.0   -0.3
H     0.5   -0.8   -0.5
H     2.8   -1.8    0.9
H     3.9   -1.3   -0.4
H     2.4   -2.0   -1.9
H     2.6    2.2    0.1
