          17
 frame:         5883
C     2.2   -0.7   -1.2
O     1.9    0.5   -0.4
C     3.0    1.2   -0.0
C     3.5    2.3   -1.0
N     3.0    2.6   -2.3
C     2.7    2.7    0.3
N     3.4    3.4    1.4
H     1.3   -1.2   -1.5
H     2.8   -1.4   -0.5
H     2.8   -0.5   -2.1
H     3.7    0.7    0.6
H     4.6    2.5   -0.9
H     2.0    2.4   -2.3
H     3.4    2.0   -3.0
H     1.7    3.0    0.1
H     4.4    3.2    1.4
H     3.0    3.1    2.3
