          17
 frame:         2524
C     2.2   -0.1   -1.4
C     3.3   -0.1   -0.3
N     4.1    1.1   -0.4
C     4.2    1.9    0.7
N     5.0    3.0    0.8
C     5.1    3.9   -0.4
C     4.3    4.3    0.8
H     1.7   -1.1   -1.4
H     2.6    0.0   -2.4
H     1.5    0.7   -1.2
H     4.0   -0.9   -0.5
H     2.9   -0.2    0.7
H     3.7    1.6    1.6
H     4.5    3.6   -1.3
H     6.1    4.3   -0.5
H     4.8    5.0    1.6
H     3.2    4.4    0.7
