          15
 frame:         2541
C     1.5    0.4    0.5
C     2.9   -0.0   -0.2
N     3.9    1.0    0.0
C     5.1    0.9   -0.5
N     5.7   -0.1   -1.1
C     5.9    2.1   -0.4
C     6.5    3.2   -0.2
H     0.8   -0.4    0.3
H     1.1    1.3   -0.0
H     1.6    0.6    1.5
H     2.7   -0.2   -1.3
H     3.2   -1.0    0.3
H     3.5    1.9    0.2
H     5.0   -0.9   -1.1
H     7.1    4.1   -0.1
