          12
 frame:          887
O     1.0   -0.1   -0.1
C     2.4    0.0    0.0
C     3.2   -0.8   -1.0
C     3.2    0.8   -1.1
C     4.4    1.5   -0.7
O     4.8    2.6   -1.1
H     0.7    0.8    0.3
H     2.8    0.1    1.0
H     2.6   -1.3   -1.8
H     4.1   -1.3   -0.7
H     2.6    1.2   -1.9
H     5.0    1.0    0.1
