          18
 frame:         1689
C     1.0    0.0    0.0
C     2.5   -0.0   -0.1
C     3.3   -1.1   -0.1
C     4.7   -0.8   -0.1
C     4.7    0.8   -0.3
C     3.3    1.3    0.0
N     2.8    2.3   -0.8
H     0.6   -1.0   -0.1
H     0.6    0.7   -0.8
H     0.7    0.5    1.0
H     2.9   -2.1   -0.1
H     5.2   -1.0    0.9
H     5.3   -1.3   -0.8
H     4.9    0.9   -1.4
H     5.5    1.3    0.2
H     3.3    1.6    1.1
H     2.9    2.1   -1.8
H     3.3    3.2   -0.7
