          17
 frame:         2610
C     1.0   -0.1   -0.1
N     2.4    0.1   -0.4
C     3.1    1.2    0.2
C     4.5    1.4   -0.2
C     5.2    0.0    0.1
C     4.3   -1.1   -0.1
N     3.1   -1.1   -0.3
H     0.5    0.8   -0.5
H     0.8   -0.2    1.0
H     0.6   -0.9   -0.7
H     2.5    2.1   -0.0
H     3.0    1.1    1.4
H     5.0    2.2    0.2
H     4.5    1.5   -1.3
H     5.6    0.1    1.1
H     6.1   -0.1   -0.6
H     4.8   -2.1   -0.1
