          15
 frame:         6046
C     2.5   -0.7    0.4
O     3.1    0.1   -0.7
N     3.2    1.4   -0.2
C     4.6    1.8   -0.3
N     5.6    1.1   -0.5
C     4.8    3.3   -0.0
C     3.9    4.1    0.5
H     2.4   -1.7   -0.0
H     1.5   -0.4    0.7
H     3.2   -0.7    1.2
H     2.6    2.0   -0.7
H     5.3    0.1   -0.7
H     5.8    3.6   -0.3
H     2.9    3.8    0.8
H     4.2    5.2    0.7
