          22
 frame:         2173
C     2.9   -0.9   -1.1
C     2.5    0.1    0.0
C     3.0    1.5   -0.1
C     2.6    2.2   -1.4
C     2.5    2.3    1.1
C     4.6    1.6   -0.1
N     5.2    0.9    1.1
H     2.5   -1.9   -1.0
H     4.0   -1.1   -1.1
H     2.6   -0.6   -2.1
H     2.9   -0.4    1.0
H     1.4    0.1    0.1
H     3.0    1.7   -2.3
H     2.9    3.2   -1.4
H     1.5    2.2   -1.4
H     2.8    1.8    2.1
H     1.4    2.3    1.1
H     2.9    3.3    1.1
H     4.9    2.6   -0.2
H     5.0    1.0   -0.9
H     5.0    1.5    2.0
H     6.2    0.8    1.0
