          19
 frame:         2335
C     1.0   -0.5    1.5
C     2.1   -0.6    0.4
C     3.2    0.4    0.6
C     4.2    0.3   -0.5
N     4.2    0.9   -1.7
N     5.3   -0.5   -0.2
C     6.4   -0.7   -1.1
H     0.2   -1.3    1.4
H     0.5    0.5    1.4
H     1.4   -0.6    2.5
H     1.6   -0.6   -0.6
H     2.5   -1.6    0.5
H     3.6    0.4    1.6
H     2.7    1.4    0.5
H     3.3    1.4   -1.8
H     5.5   -0.7    0.8
H     6.1   -1.0   -2.1
H     7.1   -1.4   -0.7
H     7.0    0.3   -1.3
