          17
 frame:         1065
C     1.4   -0.3   -0.3
N     2.8    0.0   -0.6
C     3.3    1.2    0.1
C     4.8    1.4   -0.1
C     5.7    0.4    0.6
O     5.2    1.5   -1.5
H     1.1   -1.1   -0.9
H     0.7    0.6   -0.5
H     1.4   -0.6    0.8
H     2.9    0.2   -1.6
H     3.1    1.1    1.2
H     2.8    2.2   -0.2
H     5.1    2.4    0.3
H     5.3   -0.6    0.3
H     5.5    0.4    1.7
H     6.7    0.5    0.4
H     5.2    0.5   -1.8
