          15
 frame:         2644
C     2.9   -1.1    0.6
N     2.9   -0.2   -0.5
C     3.3    1.1   -0.2
C     2.7    2.3    0.1
C     3.6    3.3    0.2
C     4.9    2.8   -0.1
N     4.7    1.5   -0.4
H     2.5   -2.1    0.3
H     2.1   -0.7    1.4
H     3.8   -1.2    1.1
H     2.0   -0.2   -1.0
H     1.6    2.4    0.4
H     3.5    4.4    0.5
H     5.9    3.2   -0.1
H     5.4    0.8   -0.7
