          15
 frame:         6028
C     1.8   -0.7    0.2
O     3.1   -0.4   -0.1
N     3.4    1.0   -0.0
C     4.6    1.2   -0.4
C     5.1    2.6   -0.3
C     6.3    2.9   -0.7
N     6.9    4.2   -0.6
H     1.7   -1.8    0.1
H     1.1   -0.1   -0.4
H     1.6   -0.4    1.3
H     5.3    0.5   -0.7
H     4.4    3.4    0.1
H     7.0    2.1   -1.0
H     6.3    5.0   -0.5
H     7.7    4.4   -1.2
