          15
 frame:         4110
C     2.7   -1.2   -0.3
O     2.2    0.0    0.2
C     3.1    1.1    0.1
C     2.6    2.3    0.8
C     2.7    3.4    0.0
C     3.2    3.0   -1.3
C     3.3    1.7   -1.3
H     2.0   -2.0   -0.1
H     3.7   -1.4    0.1
H     2.9   -1.2   -1.4
H     4.1    0.8    0.5
H     2.2    2.3    1.9
H     2.5    4.4    0.3
H     3.4    3.7   -2.1
H     3.7    1.1   -2.2
