          20
 frame:         1679
C     0.9    0.0   -0.0
C     2.4    0.0    0.1
C     3.2    1.0    1.0
C     4.2   -0.1    1.3
C     3.2   -1.1    0.8
C     2.4   -1.7    2.0
N     3.8   -2.2    0.1
H     0.5   -0.8   -0.6
H     0.6    0.9   -0.5
H     0.4   -0.0    1.0
H     2.9    0.1   -0.9
H     2.6    1.3    1.9
H     3.5    2.0    0.5
H     5.1   -0.0    0.6
H     4.6   -0.1    2.3
H     2.0   -0.9    2.6
H     3.1   -2.4    2.6
H     1.6   -2.4    1.6
H     4.2   -1.9   -0.8
H     3.1   -2.9   -0.2
