          15
 frame:         5661
C     2.3   -0.4   -1.7
N     2.4    0.1   -0.3
C     3.4    1.2   -0.1
C     3.5    1.6    1.4
O     2.8    2.9    1.5
N     2.6    3.4    0.2
C     2.9    2.5   -0.7
H     1.7   -1.3   -1.7
H     3.3   -0.7   -2.1
H     1.9    0.4   -2.3
H     2.6   -0.7    0.3
H     4.4    0.9   -0.5
H     4.5    1.7    1.7
H     2.9    0.9    2.1
H     2.8    2.7   -1.8
