          15
 frame:         2833
N     1.5    0.1    1.2
C     2.3    0.1    0.2
C     3.0   -1.3   -0.2
C     4.1   -0.9   -1.2
C     5.1    0.1   -0.7
C     3.9    0.6   -1.5
N     2.8    1.0   -0.7
H     1.2    1.1    1.3
H     2.2   -1.9   -0.8
H     3.3   -1.8    0.6
H     4.4   -1.6   -2.0
H     5.2    0.3    0.4
H     6.1    0.1   -1.2
H     4.0    1.0   -2.5
H     2.7    2.0   -0.4
