          15
 frame:         4530
O     0.9   -0.0    0.0
C     2.3   -0.1    0.0
C     2.8    1.4   -0.0
O     4.2    1.3   -0.0
C     4.8    2.6   -0.0
C     6.2    2.6   -0.1
C     7.5    2.5   -0.1
H     0.5   -0.9    0.0
H     2.7   -0.6   -0.9
H     2.7   -0.6    0.9
H     2.4    1.9    0.9
H     2.4    1.9   -0.9
H     4.5    3.2    0.9
H     4.4    3.2   -0.9
H     8.5    2.5   -0.1
