          16
 frame:         5392
C     1.6   -0.6   -1.0
C     2.9   -0.5   -0.3
N     3.3    0.9    0.0
C     4.2    1.6   -0.8
O     4.8    1.1   -1.7
C     4.3    3.0   -0.3
C     5.2    3.8   -1.0
H     1.4   -1.7   -1.2
H     1.6   -0.1   -2.0
H     0.8   -0.2   -0.4
H     3.7   -0.9   -0.9
H     2.9   -1.1    0.7
H     2.8    1.4    0.8
H     3.8    3.4    0.5
H     5.7    3.5   -1.9
H     5.3    4.9   -0.7
