          15
 frame:          561
C     1.0   -0.1    0.0
N     2.4    0.0    0.0
C     2.9    1.4   -0.1
C     4.5    1.4    0.0
C     5.0    2.7   -0.1
C     5.5    3.9   -0.1
H     0.7   -1.1    0.0
H     0.5    0.5   -0.9
H     0.6    0.4    0.9
H     2.8   -0.5   -0.8
H     2.5    1.9    0.8
H     2.6    1.9   -1.0
H     4.9    0.8   -0.8
H     4.8    0.9    0.9
H     5.9    4.8   -0.1
