          13
 frame:         4259
O     0.9   -1.4   -0.0
C    -0.4   -1.5   -0.0
C    -1.4   -0.6    0.0
C    -1.4    0.8   -0.0
C    -0.3    1.6   -0.0
C     1.1    1.1    0.0
C     1.6   -0.1   -0.0
H    -0.7   -2.6    0.0
H    -2.4   -1.1    0.0
H    -2.4    1.3   -0.0
H    -0.5    2.7   -0.0
H     1.8    1.9    0.0
H     2.6   -0.3    0.0
