          18
 frame:         2028
C     2.6   -0.9   -1.3
C     2.3    0.2   -0.3
C     1.3    0.1    0.6
C     3.4    1.2   -0.2
C     3.2    2.5   -1.1
C     3.2    2.6    0.5
N     4.2    3.3    1.1
H     3.6   -1.4   -1.1
H     2.6   -0.4   -2.3
H     1.8   -1.7   -1.3
H     0.6   -0.7    0.5
H     1.1    0.9    1.3
H     4.4    0.9   -0.2
H     2.2    2.6   -1.6
H     4.0    2.9   -1.6
H     2.2    2.8    0.9
H     5.1    3.3    0.6
H     4.4    2.9    2.0
