          14
 frame:         6871
O     0.6    1.1   -0.8
N     2.0    1.0   -1.0
C     2.7    1.3    0.0
C     4.2    1.3   -0.1
C     4.8    2.7    0.0
C     4.7    3.4    1.4
O     4.2    2.9    2.4
H     0.2    0.8   -1.6
H     2.2    1.7    0.9
H     4.5    0.8   -1.0
H     4.5    0.7    0.8
H     4.4    3.4   -0.7
H     5.9    2.6   -0.2
H     5.2    4.4    1.4
