          17
 frame:         6029
C     3.6   -0.7    1.2
O     4.4    0.1    0.3
N     4.6    1.4    0.8
C     5.3    2.1    0.0
C     5.6    3.5    0.3
C     5.0    4.0    1.6
N     7.1    3.7    0.2
H     3.5   -1.7    0.8
H     2.6   -0.2    1.2
H     4.0   -0.7    2.2
H     5.8    1.6   -0.9
H     5.2    4.1   -0.5
H     5.4    3.4    2.5
H     3.9    3.9    1.6
H     5.2    5.1    1.8
H     7.5    3.2    1.0
H     7.3    4.7    0.3
