          16
 frame:         5724
C     0.2   -1.7    0.7
N     1.3   -1.2   -0.2
C     2.0   -2.3   -0.8
C     2.2   -0.4    0.6
C     2.8    0.7   -0.3
O     2.1    0.9   -1.4
O     3.8    1.4   -0.0
H     0.5   -2.4    1.4
H    -0.5   -2.2    0.0
H    -0.3   -0.9    1.1
H     1.3   -2.9   -1.5
H     2.4   -3.0   -0.1
H     2.8   -1.9   -1.5
H     3.1   -0.9    1.1
H     1.7    0.1    1.4
H     1.4    0.2   -1.4
