          15
 frame:         4152
C     3.7   -1.0    0.3
O     2.7    0.0    0.3
C     3.1    1.3    0.2
C     4.4    1.7    0.0
C     4.7    3.2   -0.1
C     5.4    3.5   -1.4
C     5.9    3.8   -2.4
H     3.1   -1.9    0.4
H     4.4   -0.9    1.1
H     4.2   -1.0   -0.7
H     2.3    2.0    0.3
H     5.2    1.0   -0.0
H     5.4    3.5    0.7
H     3.8    3.8   -0.0
H     6.4    4.0   -3.3
