          15
 frame:         4470
O     1.4   -0.4   -1.0
C     2.5   -0.3   -0.1
C     2.8    1.1    0.1
C     4.0    1.6   -0.1
C     4.4    3.1    0.0
C     5.5    3.3    1.0
C     6.5    3.4    1.8
H     1.0   -1.3   -1.0
H     3.3   -0.9   -0.4
H     2.2   -0.7    0.9
H     2.0    1.8    0.4
H     4.9    1.0   -0.5
H     3.5    3.7    0.4
H     4.7    3.5   -0.9
H     7.3    3.6    2.4
