          16
 frame:         5686
C     1.1   -1.1    0.3
N     2.3   -0.4   -0.1
C     2.6    0.9    0.2
C     3.8    1.5    0.1
C     4.1    2.9    0.4
C     2.9    3.8    0.8
O     5.2    3.4    0.2
H     0.9   -1.9   -0.3
H     0.3   -0.4    0.3
H     1.2   -1.5    1.4
H     3.1   -1.0   -0.4
H     1.7    1.4    0.6
H     4.7    0.9   -0.2
H     2.5    3.4    1.8
H     2.1    3.8    0.1
H     3.3    4.8    1.0
