          15
 frame:         1640
C     1.0    0.0    0.6
C     2.3    0.1   -0.1
C     2.6    1.0   -1.2
C     4.0    1.3   -1.6
C     4.5   -0.1   -1.9
N     3.7   -1.1   -1.8
N     2.4   -0.5   -1.5
H     0.9    0.7    1.4
H     0.8   -1.0    1.0
H     0.2    0.3   -0.1
H     3.2   -0.2    0.5
H     1.8    1.6   -1.6
H     4.6    1.8   -0.8
H     4.1    1.9   -2.5
H     5.6   -0.4   -2.1
