          20
 frame:         5469
C     3.9    3.5   -3.2
C     3.9    2.3   -2.3
O     4.9    2.5   -1.3
C     5.0    1.4   -0.4
C     6.2    1.7    0.6
C     5.9    2.9    1.5
N     7.0    3.0    2.4
H     3.1    3.3   -4.0
H     4.8    3.5   -3.8
H     3.7    4.4   -2.7
H     4.1    1.3   -2.9
H     2.9    2.1   -1.8
H     5.2    0.4   -1.0
H     4.1    1.3    0.1
H     7.1    1.8   -0.0
H     6.3    0.8    1.2
H     5.0    2.7    2.0
H     5.8    3.8    0.8
H     7.9    3.2    1.9
H     6.9    3.8    3.1
