          15
 frame:         4677
C     0.9    0.1    0.1
C     2.4    0.0    0.1
C     3.2    1.1    0.9
C     3.8   -0.1    1.7
O     4.7   -0.3    2.5
N     2.9   -1.0    1.0
N     2.9   -2.4    0.9
H     0.4   -0.8   -0.3
H     0.6    1.0   -0.6
H     0.5    0.3    1.1
H     2.8   -0.1   -0.9
H     2.6    1.8    1.5
H     4.0    1.6    0.3
H     2.5   -2.8    1.7
H     3.9   -2.7    0.9
