          14
 frame:          905
O     0.9    0.0    0.2
C     2.3   -0.0    0.0
C     3.1    1.1    0.8
C     4.1   -0.0    1.2
O     5.4    0.0    0.5
C     3.1   -1.1    0.8
H     0.5   -0.7   -0.4
H     2.6    0.0   -1.1
H     2.4    1.4    1.7
H     3.4    1.9    0.3
H     4.4   -0.0    2.3
H     5.2    0.1   -0.4
H     3.5   -2.0    0.2
H     2.5   -1.5    1.6
