          17
 frame:          402
C     2.7   -1.4   -0.7
C     2.0   -0.1   -0.3
C     3.0    1.0    0.1
C     3.8    0.7    1.4
C     3.6    1.8   -0.9
N     2.5    2.4   -0.1
H     1.9   -2.2   -1.0
H     3.3   -1.9    0.1
H     3.4   -1.3   -1.5
H     1.3   -0.3    0.6
H     1.4    0.3   -1.1
H     4.5    1.6    1.6
H     4.4   -0.2    1.3
H     3.1    0.6    2.3
H     3.4    1.6   -2.0
H     4.6    2.2   -0.8
H     2.9    3.0    0.6
