          15
 frame:         6271
N     3.8   -0.9    0.8
C     2.8   -0.2    0.1
C     3.1    1.2   -0.1
C     4.2    1.9    0.2
C     4.4    3.3   -0.0
N     5.7    3.8    0.3
O     3.5    4.1   -0.5
H     3.6   -1.9    0.8
H     3.8   -0.7    1.8
H     1.8   -0.3    0.6
H     2.6   -0.7   -0.9
H     2.3    1.9   -0.5
H     5.0    1.3    0.7
H     6.4    3.1    0.5
H     5.9    4.7    0.0
