          17
 frame:         3869
C     0.4   -2.0    0.1
C     1.8   -2.2   -0.3
C     2.5   -3.3   -0.3
O     2.3   -1.0   -0.8
C     3.6   -0.9   -1.2
C     4.0    0.5   -1.6
C     4.5    0.8   -2.8
H    -0.3   -1.7   -0.7
H     0.3   -1.3    0.9
H    -0.0   -3.0    0.5
H     2.0   -4.2    0.1
H     3.5   -3.4   -0.6
H     3.8   -1.6   -2.1
H     4.3   -1.2   -0.4
H     3.7    1.2   -0.9
H     4.7    0.1   -3.5
H     4.8    1.9   -3.0
