          16
 frame:          606
N     2.1   -0.4   -1.4
C     2.4    0.1   -0.0
C     3.3    1.3   -0.1
C     2.7    2.6   -0.6
N     2.5    3.0    0.8
C     3.4    2.0    1.3
H     1.4   -1.1   -1.4
H     3.0   -0.9   -1.7
H     2.8   -0.7    0.7
H     1.4    0.4    0.4
H     4.3    0.9   -0.5
H     1.9    2.5   -1.3
H     3.5    3.2   -1.2
H     2.7    4.0    0.9
H     4.4    2.4    1.5
H     3.1    1.5    2.2
