          19
 frame:         4130
C     1.1    0.8   -1.3
O     2.6    0.8   -1.2
C     3.0    1.4    0.0
C     4.5    1.4    0.0
C     5.3    2.4   -0.9
C     6.3    2.6    0.2
C     5.3    2.0    1.2
H     0.9    0.4   -2.2
H     0.7    1.8   -1.2
H     0.7    0.2   -0.5
H     2.7    0.8    0.9
H     2.6    2.4    0.1
H     4.9    0.4   -0.2
H     4.7    3.3   -1.1
H     5.7    2.1   -1.9
H     7.2    2.0    0.1
H     6.7    3.7    0.4
H     5.6    1.4    2.0
H     4.7    2.8    1.7
