          15
 frame:         5810
C     1.2   -0.4   -0.2
N     2.6   -0.2    0.0
C     3.2    1.1   -0.1
O     2.6    2.1   -0.5
C     4.7    1.1    0.1
C     5.3    2.3   -0.0
N     6.7    2.5    0.2
H     1.0   -1.1   -0.9
H     0.8    0.6   -0.5
H     0.7   -0.7    0.8
H     3.2   -0.9    0.3
H     5.2    0.2    0.4
H     4.8    3.1   -0.3
H     7.3    1.7    0.3
H     7.1    3.3   -0.2
