          16
 frame:         5814
C     1.0   -0.2   -0.1
N     2.4   -0.1   -0.1
C     3.0    1.1    0.2
O     2.4    2.1    0.5
C     4.5    1.1    0.2
C     5.1    2.5   -0.3
O     4.7    3.5    0.6
H     0.7   -1.2   -0.4
H     0.5    0.5   -0.7
H     0.6   -0.1    1.0
H     3.0   -0.9   -0.3
H     4.9    0.3   -0.5
H     4.9    0.9    1.2
H     4.7    2.7   -1.3
H     6.2    2.4   -0.3
H     3.8    3.4    0.8
