          16
 frame:         6687
O     1.5   -0.4   -1.0
C     2.1    0.1    0.2
C     3.1    1.2   -0.1
O     4.2    0.6   -0.8
C     2.5    2.5   -0.6
N     2.4    3.0    0.8
C     3.5    2.0    1.2
H     2.3   -0.7   -1.6
H     2.6   -0.7    0.8
H     1.2    0.5    0.8
H     4.7    1.3   -1.2
H     1.5    2.5   -1.1
H     3.2    3.0   -1.3
H     2.7    4.0    0.9
H     4.5    2.4    1.1
H     3.3    1.5    2.2
