          12
 frame:         6763
O     1.7   -0.6    1.0
C     2.4   -0.1   -0.1
C     2.9    1.4    0.1
N     2.1    2.4    0.3
O     0.7    1.9    0.3
C     4.3    1.7   -0.1
C     5.5    1.8   -0.2
H     0.9    0.0    1.1
H     1.8   -0.1   -1.0
H     3.3   -0.7   -0.3
H     0.3    2.8    0.5
H     6.5    1.9   -0.3
