          20
 frame:         2629
C     2.1   -0.5   -1.4
N     2.3    0.1   -0.0
C     3.1    1.3   -0.0
C     2.5    2.6   -0.5
C     3.2    3.3    0.6
C     3.3    2.0    1.4
C     4.6    1.7    2.1
H     1.5   -1.4   -1.3
H     3.1   -0.7   -1.9
H     1.5    0.2   -2.0
H     2.7   -0.6    0.6
H     4.1    1.1   -0.5
H     1.4    2.6   -0.3
H     2.6    2.9   -1.6
H     4.2    3.7    0.3
H     2.6    4.1    1.2
H     2.5    1.8    2.0
H     5.5    1.8    1.5
H     4.6    0.6    2.5
H     4.7    2.3    3.0
