          13
 frame:          970
C     0.9   -0.1   -0.1
C     2.4    0.2   -0.1
C     3.3   -0.7   -1.0
N     2.9    0.7   -1.4
C     3.9    1.7   -1.5
O     3.8    2.8   -0.9
H     0.3    0.9    0.1
H     0.6   -0.8    0.7
H     0.5   -0.5   -1.0
H     2.8    0.6    0.8
H     2.9   -1.5   -1.6
H     4.3   -0.9   -0.6
H     4.7    1.5   -2.2
