          14
 frame:         4784
C     0.9   -0.0    0.1
C     2.5   -0.0    0.1
C     3.1    1.1    0.9
O     4.3    0.6    1.4
C     4.2   -0.8    1.4
O     5.1   -1.6    1.8
N     3.0   -1.2    0.8
H     0.5   -0.9   -0.5
H     0.6    0.9   -0.4
H     0.6   -0.0    1.1
H     2.9   -0.0   -1.0
H     2.5    1.4    1.7
H     3.4    2.0    0.3
H     3.0   -2.1    0.4
