          12
 frame:          114
C     0.9   -0.1   -0.0
C     2.5   -0.0   -0.0
C     3.0    1.4    0.0
C     4.5    1.5    0.0
N     5.7    1.5    0.0
H     0.6   -1.1   -0.0
H     0.5    0.5   -0.9
H     0.5    0.4    0.9
H     2.9   -0.6   -0.9
H     2.9   -0.6    0.9
H     2.7    1.9    0.9
H     2.7    2.0   -0.9
