          15
 frame:         3057
C    -0.9    0.0   -1.2
C    -0.6    1.0   -0.1
C    -1.3    0.0    0.9
C    -0.6   -1.0   -0.1
C     0.8   -0.7    0.3
O     1.6    0.0   -0.7
C     0.8    0.7    0.3
H    -2.0    0.0   -1.5
H    -0.3    0.0   -2.1
H    -0.9    2.1   -0.1
H    -1.0    0.0    2.0
H    -2.4    0.0    0.8
H    -0.9   -2.1   -0.1
H     1.4   -1.4    0.9
H     1.4    1.4    0.9
