          12
 frame:         4798
C     0.9   -0.1    0.2
C     2.2   -0.0   -0.1
C     3.1    1.2   -0.1
O     4.2    1.1    0.7
N     5.0   -0.1    0.3
C     4.3   -1.1   -0.1
O     2.9   -1.2   -0.3
H     0.3    0.8    0.4
H     0.4   -1.1    0.2
H     2.5    2.1    0.2
H     3.4    1.4   -1.2
H     4.8   -2.0   -0.4
