          15
 frame:         4104
C     2.1   -0.4   -1.6
O     2.2    0.1   -0.3
C     3.0    1.3   -0.2
C     2.4    2.7   -0.6
C     3.1    3.3    0.7
C     3.2    1.9    1.2
O     3.4    1.4    2.3
H     1.6   -1.4   -1.6
H     3.1   -0.7   -2.0
H     1.6    0.3   -2.3
H     4.0    1.1   -0.7
H     1.3    2.7   -0.5
H     2.7    3.1   -1.6
H     4.0    3.8    0.5
H     2.5    4.0    1.3
