          17
 frame:         1284
C     0.9    0.0    0.2
C     2.4    0.1    0.0
C     3.2    1.2    0.2
C     4.6    1.2   -0.0
C     5.3    0.0   -0.1
C     4.6   -1.3    0.1
C     3.1   -1.2   -0.4
H     0.6   -0.7    0.9
H     0.5   -0.3   -0.8
H     0.5    1.0    0.4
H     2.7    2.1    0.4
H     5.1    2.1   -0.1
H     6.4    0.0   -0.2
H     5.1   -2.1   -0.4
H     4.6   -1.5    1.2
H     2.6   -2.1   -0.0
H     3.1   -1.3   -1.5
