          12
 frame:         6392
N     1.3   -0.2   -0.8
C     2.5   -0.1   -0.3
O     3.0   -1.1    0.3
C     3.2    1.2   -0.4
C     4.4    1.3    0.2
C     5.2    2.5    0.1
C     5.8    3.6    0.1
H     0.8    0.6   -1.3
H     0.8   -1.1   -0.8
H     2.7    2.0   -0.9
H     4.9    0.5    0.6
H     6.4    4.5    0.1
