          13
 frame:         2560
C     1.0    0.3   -0.1
C     2.5    0.2    0.3
N     3.0   -0.8    0.8
N     2.2   -1.9    1.1
C     2.4   -3.0    0.5
C     3.3    1.4    0.1
C     3.9    2.4   -0.0
H     0.7    1.4   -0.2
H     0.4   -0.2    0.6
H     0.9   -0.1   -1.1
H     1.8   -3.8    0.8
H     3.1   -3.1   -0.3
H     4.5    3.3   -0.2
