          15
 frame:         3261
C     0.9   -0.1   -0.1
C     2.4   -0.0    0.0
C     3.1   -1.2   -0.5
C     4.0   -0.8   -1.5
O     3.9    0.5   -1.8
C     3.0    1.1   -0.9
C     2.8    2.4   -0.9
H     0.4    0.8    0.3
H     0.5   -0.9    0.6
H     0.6   -0.3   -1.1
H     2.7    0.2    1.1
H     3.0   -2.2   -0.2
H     4.6   -1.4   -2.2
H     3.3    3.1   -1.6
H     2.1    2.8   -0.1
