          14
 frame:         5056
C     1.0   -0.0    0.0
C     2.4   -0.0   -0.0
C     3.6   -0.0   -0.0
C     5.1   -0.0   -0.0
N     5.6    1.4    0.0
C     7.0    1.6    0.1
O     7.8    0.8    0.1
H     0.6    1.0    0.0
H     0.6   -0.5    0.9
H     0.6   -0.5   -0.9
H     5.5   -0.5   -0.9
H     5.5   -0.6    0.9
H     5.0    2.1    0.0
H     7.2    2.7    0.1
