          18
 frame:         2280
C     2.8   -0.9   -1.1
C     2.5   -0.0    0.1
C     3.0    1.4    0.0
C     2.5    2.3    1.1
N     1.1    2.5    1.0
C     4.5    1.4   -0.0
C     5.7    1.5    0.0
H     2.4   -1.9   -1.0
H     3.9   -1.0   -1.3
H     2.4   -0.5   -2.0
H     2.9   -0.5    1.0
H     1.4    0.1    0.2
H     2.7    1.9   -0.9
H     3.1    3.3    1.1
H     2.7    1.8    2.1
H     0.8    3.2    0.3
H     0.7    2.9    1.9
H     6.8    1.5    0.0
