          17
 frame:         6225
N     2.0   -0.6   -1.3
C     2.3    0.0    0.0
C     3.1    1.3   -0.1
N     4.3    1.0   -0.9
C     2.3    2.5   -0.5
O     2.3    3.0    0.9
C     3.4    2.0    1.2
H     1.0   -1.0   -1.2
H     2.6   -1.3   -1.5
H     2.9   -0.7    0.7
H     1.4    0.3    0.6
H     4.9    1.9   -1.1
H     4.1    0.6   -1.8
H     1.2    2.4   -0.8
H     2.8    3.3   -1.1
H     4.3    2.5    1.3
H     3.2    1.5    2.1
