          19
 frame:         2520
C     2.3   -0.3   -0.3
C     3.9   -0.4   -0.3
N     4.4    0.9    0.1
C     5.7    1.0    0.1
C     6.7   -0.1   -0.2
N     6.3    2.2    0.5
C     5.4    3.3    1.0
H     1.9   -1.2   -0.6
H     2.0    0.5   -0.9
H     2.0   -0.1    0.8
H     4.2   -0.6   -1.3
H     4.2   -1.2    0.3
H     6.6   -0.9    0.4
H     7.8    0.3   -0.1
H     6.5   -0.4   -1.2
H     7.2    2.2    0.8
H     4.7    3.5    0.2
H     6.1    4.2    1.1
H     4.9    3.0    1.9
