          14
 frame:          690
C     1.0    0.0    0.1
C     2.5   -0.1    0.0
C     3.2   -0.8   -1.1
O     2.4   -1.3   -2.2
C     3.4    0.7   -0.9
O     4.7    1.1   -0.6
H     0.7    0.9    0.7
H     0.5   -0.9    0.5
H     0.6    0.2   -0.9
H     3.0   -0.4    1.0
H     4.0   -1.4   -0.9
H     2.9   -1.2   -3.0
H     2.8    1.3   -1.6
H     4.5    1.8    0.1
