          12
 frame:         7040
C     1.0   -0.0    0.0
C     2.5   -0.0    0.1
C     3.7   -0.0    0.1
S     5.4    0.1   -0.0
N     5.8   -0.6    1.5
O     5.8   -0.8   -1.1
O     5.8    1.5    0.0
H     0.6    1.0    0.2
H     0.6   -0.7    0.8
H     0.7   -0.4   -1.0
H     6.3    0.1    2.0
H     6.4   -1.4    1.3
