          19
 frame:         1411
C     3.1   -2.5   -1.3
C     3.0   -1.7   -0.0
C     2.5   -2.2    1.1
C     3.4   -0.2   -0.1
C     4.9   -0.1   -0.3
C     5.3    1.4   -0.3
C     5.8    2.0   -1.4
H     2.5   -2.0   -2.1
H     2.6   -3.5   -1.2
H     4.1   -2.6   -1.6
H     2.2   -3.3    1.2
H     2.4   -1.6    2.0
H     3.1    0.3    0.9
H     2.8    0.3   -0.9
H     5.2   -0.5   -1.3
H     5.5   -0.6    0.5
H     5.1    1.9    0.6
H     6.0    1.5   -2.4
H     6.1    3.1   -1.3
