          19
 frame:         4175
C     0.9    0.6    1.1
O     2.3    0.7    1.2
C     2.8    1.5    0.0
C     4.3    1.5    0.1
C     5.1    2.6    0.1
C     4.6    4.0    0.1
C     6.6    2.5    0.0
H     0.6   -0.0    2.0
H     0.6    0.1    0.2
H     0.4    1.6    1.2
H     2.3    2.5    0.1
H     2.4    1.0   -0.9
H     4.7    0.5    0.1
H     3.5    4.1    0.1
H     4.9    4.5   -0.9
H     5.1    4.6    0.9
H     6.9    1.4    0.0
H     7.0    3.0    0.9
H     7.0    2.9   -0.9
