          18
 frame:         5217
C     1.0    0.2    0.1
C     2.5    0.0    0.0
C     3.0   -0.9    1.1
O     2.8   -0.6   -1.3
C     3.2    1.4    0.0
C     4.0    1.9    1.2
N     4.7    1.3   -0.0
H     0.6    0.8   -0.8
H     0.7    0.7    1.0
H     0.5   -0.8    0.0
H     2.6   -0.6    2.1
H     4.0   -1.0    1.1
H     2.5   -1.9    1.0
H     3.7   -0.6   -1.4
H     2.7    2.1   -0.6
H     4.1    1.3    2.1
H     4.0    3.0    1.3
H     5.0    2.1   -0.6
