          17
 frame:         1249
C     0.9    0.0    0.3
C     2.4    0.0   -0.1
C     3.1    1.1   -0.4
C     4.6    0.7   -0.6
C     5.3    0.1    0.6
C     4.6   -0.8   -0.4
C     3.2   -1.3   -0.1
H     0.3   -0.7   -0.3
H     0.5    1.0    0.3
H     0.8   -0.4    1.3
H     2.8    2.1   -0.4
H     5.2    1.2   -1.4
H     6.4    0.1    0.6
H     4.8    0.2    1.6
H     5.3   -1.4   -1.0
H     3.1   -1.9    0.8
H     2.8   -1.9   -0.9
