          15
 frame:         1993
C     2.3   -0.6   -1.4
C     2.5    0.0    0.0
C     3.0    1.4    0.0
C     2.3    2.6   -0.0
N     3.2    3.6   -0.0
N     4.5    3.2    0.0
C     4.3    1.8    0.0
H     1.9   -1.6   -1.4
H     3.3   -0.6   -1.9
H     1.6    0.0   -2.0
H     3.1   -0.6    0.6
H     1.5   -0.0    0.5
H     1.2    2.8   -0.0
H     3.0    4.6   -0.0
H     5.2    1.2    0.1
