          15
 frame:          154
C     1.0   -0.0   -0.0
C     2.5   -0.0   -0.0
C     3.0   -0.7    1.3
C     3.0   -0.8   -1.2
O     3.0    1.3    0.1
H     0.6    0.5   -0.9
H     0.6    0.5    0.9
H     0.6   -1.0   -0.0
H     2.7   -0.2    2.2
H     4.1   -0.7    1.3
H     2.7   -1.7    1.3
H     2.7   -0.2   -2.2
H     2.7   -1.8   -1.3
H     4.2   -0.7   -1.2
H     2.7    1.8   -0.8
