          12
 frame:          757
C     1.0    0.0   -0.0
C     2.4   -0.0   -0.0
C     3.6   -0.1    0.0
C     5.1   -0.0    0.0
C     5.7    1.4   -0.1
O     6.6    1.8    0.6
H     0.6    1.0    0.0
H     0.6   -0.5    0.9
H     0.6   -0.5   -0.9
H     5.5   -0.6   -0.9
H     5.5   -0.5    0.9
H     5.1    2.1   -0.8
