          15
 frame:         4922
C     1.0    0.0    0.0
C     2.5   -0.0   -0.1
O     2.9   -1.2   -0.9
N     3.3   -0.7   -2.2
C     3.4    0.6   -2.1
C     3.1    1.2   -0.8
N     4.3    1.8   -0.2
H     0.7    0.8    0.7
H     0.6   -0.9    0.4
H     0.5    0.2   -1.0
H     3.0   -0.2    0.9
H     3.8    1.1   -3.0
H     2.4    2.0   -0.8
H     5.0    1.1   -0.1
H     4.2    2.2    0.7
