          13
 frame:           80
C     1.0   -0.0    0.0
C     2.5   -0.0   -0.0
C     3.1   -0.8   -1.2
C     3.0    1.4    0.0
C     3.4    2.5    0.0
H     0.6    0.5    0.9
H     0.6   -1.1    0.1
H     0.6    0.4   -0.9
H     2.9   -0.5    0.9
H     2.7   -0.3   -2.2
H     2.7   -1.8   -1.2
H     4.2   -0.8   -1.2
H     3.8    3.5    0.0
