          19
 frame:         3009
N     0.4    1.0    0.2
C     1.8    0.7    0.3
C     2.7    1.9   -0.1
N     4.1    1.6   -0.1
C     5.0    2.7   -0.5
C     6.4    2.4   -0.4
C     7.0    1.3    0.1
H    -0.1    0.2    0.4
H     0.2    1.7    0.9
H     2.0   -0.2   -0.4
H     2.2    0.4    1.3
H     2.5    2.7    0.5
H     2.4    2.2   -1.1
H     4.3    0.8   -0.7
H     4.7    3.6    0.2
H     4.7    3.1   -1.5
H     7.1    3.2   -0.8
H     6.4    0.5    0.5
H     8.1    1.2    0.1
