          13
 frame:         3066
C     2.0   -0.2   -0.1
C     0.7   -0.8    0.1
O    -0.4   -1.4   -0.5
C    -1.5   -0.5   -0.3
C    -1.3    0.8    0.2
O    -0.1    1.5    0.5
C     0.8    0.6   -0.3
H     2.6   -0.3   -1.0
H     2.7   -0.2    0.8
H     0.5   -0.8    1.2
H    -2.4   -0.9   -0.4
H    -2.2    1.4    0.5
H     0.6    0.8   -1.3
