          17
 frame:         3811
C     1.0   -0.1    0.1
C     2.5   -0.1   -0.2
C     2.8   -1.2   -1.3
C     3.0    1.2   -0.8
O     2.4    1.8   -1.7
C     4.2    1.9   -0.1
O     4.5    3.1   -0.8
H     0.8    0.6    0.9
H     0.7   -1.1    0.5
H     0.4    0.1   -0.7
H     3.1   -0.3    0.7
H     2.3   -1.0   -2.2
H     2.5   -2.2   -0.9
H     3.9   -1.2   -1.5
H     5.0    1.2   -0.2
H     4.0    2.0    0.9
H     3.8    3.2   -1.5
