          16
 frame:         5966
C     2.5   -0.9    0.7
O     2.3    0.5    1.0
C     2.8    1.4    0.0
C     2.3    2.8    0.4
N     2.7    3.7   -0.7
C     4.3    1.3   -0.0
C     5.5    1.3   -0.0
H     2.1   -1.5    1.5
H     3.6   -1.1    0.7
H     2.1   -1.2   -0.3
H     2.5    1.1   -1.0
H     2.7    3.0    1.4
H     1.2    2.7    0.4
H     3.7    3.9   -0.6
H     2.3    4.6   -0.5
H     6.6    1.3   -0.1
