          18
 frame:          227
C     3.0   -1.2   -0.5
C     2.5    0.0    0.2
C     3.4    1.2    0.2
C     3.5    2.1   -1.0
C     2.9    2.6    0.3
C     3.7    3.7    1.1
H     2.3   -2.0   -0.5
H     4.0   -1.5    0.0
H     3.3   -1.0   -1.6
H     2.2   -0.2    1.2
H     1.5    0.3   -0.3
H     4.4    1.0    0.7
H     2.9    1.9   -1.9
H     4.5    2.5   -1.3
H     1.8    2.7    0.3
H     4.8    3.5    1.1
H     3.4    3.6    2.2
H     3.5    4.7    0.7
