          16
 frame:         5762
C     0.9    0.1    0.3
N     2.3    0.1   -0.1
C     3.0   -1.2   -0.2
C     3.6   -1.6   -1.6
O     4.8   -1.0   -1.9
C     2.9    1.3   -0.3
O     4.1    1.4   -0.7
H     0.5    1.1    0.3
H     0.8   -0.4    1.3
H     0.3   -0.5   -0.4
H     2.3   -1.9    0.2
H     3.9   -1.1    0.5
H     2.8   -1.3   -2.3
H     3.7   -2.6   -1.6
H     4.8   -0.0   -1.6
H     2.2    2.2   -0.2
