          14
 frame:         4613
C     1.0    1.2   -0.1
O    -0.2    1.2    0.6
N    -1.3    0.8   -0.3
C    -1.4   -0.5   -0.3
C    -0.5   -1.5    0.4
C     0.9   -1.4   -0.0
C     1.6   -0.2   -0.2
H     1.7    1.8    0.5
H     0.9    1.7   -1.1
H    -2.2   -0.8   -1.0
H    -0.9   -2.5    0.2
H    -0.6   -1.3    1.5
H     1.5   -2.3   -0.1
H     2.6   -0.2   -0.6
