          16
 frame:         4573
C    -0.9   -0.0   -1.1
C    -0.6    1.1   -0.1
C    -1.1    0.0    0.9
N    -0.7   -1.1   -0.0
C     0.8   -1.2    0.2
C     1.6    0.1   -0.1
O     0.8    1.2    0.1
H    -1.9   -0.1   -1.5
H    -0.2   -0.1   -2.0
H    -1.0    2.1   -0.2
H    -0.6    0.0    1.9
H    -2.2    0.0    1.0
H     0.9   -1.6    1.2
H     1.1   -2.0   -0.5
H     1.9    0.0   -1.2
H     2.5    0.1    0.5
