          13
 frame:         6472
O     1.1   -0.1    0.8
C     2.4    0.0    0.3
C     2.6    0.8   -1.0
N     4.0    1.1   -1.3
N     4.7   -0.0   -1.6
C     4.0   -1.1   -1.4
C     2.6   -0.8   -1.0
H     1.0    0.8    1.3
H     3.2   -0.0    1.0
H     1.8    1.4   -1.4
H     4.1    1.9   -2.0
H     4.3   -2.1   -1.6
H     1.7   -1.4   -1.3
