          17
 frame:         2529
C     1.0   -0.0    0.1
C     2.5   -0.0    0.0
N     3.0   -0.8    1.1
C     3.0   -0.8   -1.3
N     4.5   -0.8   -1.3
C     3.0    1.4   -0.0
C     3.5    2.5   -0.0
H     0.6    0.5   -0.8
H     0.6    0.5    0.9
H     0.6   -1.0    0.1
H     3.0   -0.2    2.0
H     4.0   -0.9    1.0
H     2.5   -0.2   -2.1
H     2.6   -1.8   -1.2
H     4.8    0.1   -1.6
H     4.8   -1.5   -2.0
H     3.9    3.5    0.0
