          17
 frame:         6220
N     0.9    0.7   -0.6
C     2.3    0.2   -0.4
C     3.2    1.4    0.0
N     3.0    2.7   -0.6
C     2.8    2.5    0.9
C     3.7    3.3    1.8
O     5.0    3.5    1.2
H     0.4    0.6    0.3
H     0.5    0.1   -1.2
H     2.7   -0.1   -1.4
H     2.5   -0.6    0.3
H     4.3    1.1    0.1
H     2.1    2.7   -1.1
H     1.7    2.5    1.2
H     3.9    2.7    2.7
H     3.2    4.2    2.1
H     4.8    3.6    0.2
