          14
 frame:         5130
C     1.2   -0.6    0.3
C     2.4    0.3   -0.1
C     2.2    1.8    0.0
C     2.2    2.4    1.4
O     2.4    1.7    2.4
N     2.0    2.4   -1.1
O     1.7    3.8   -0.9
H     1.4   -1.6    0.1
H     0.3   -0.3   -0.4
H     0.9   -0.4    1.3
H     2.7    0.1   -1.2
H     3.3    0.0    0.5
H     1.9    3.5    1.4
H     1.6    4.1   -1.8
