          14
 frame:         5148
C     1.0   -0.3    0.1
C     2.5    0.0   -0.1
C     3.1   -0.7   -1.2
N     3.5   -1.3   -2.1
C     2.6    1.6   -0.1
C     3.2    2.2   -1.4
O     2.3    2.2    0.8
H     0.6    0.2    0.9
H     0.8   -1.4    0.2
H     0.4   -0.0   -0.8
H     3.0   -0.3    0.8
H     2.6    1.9   -2.3
H     4.2    1.8   -1.6
H     3.2    3.3   -1.3
