          12
 frame:          516
C     0.9    0.1    0.0
C     2.4    0.0    0.0
N     2.9   -1.2    0.1
C     3.1    1.2    0.0
C     4.5    1.1   -0.0
N     5.7    1.0   -0.0
H     0.5    1.1   -0.0
H     0.5   -0.4    0.9
H     0.5   -0.5   -0.8
H     2.4   -2.0   -0.1
H     4.0   -1.3   -0.0
H     2.6    2.1    0.0
