          19
 frame:         2918
N     1.3    0.3   -1.4
C     2.1    0.1   -0.1
C     3.2    1.2   -0.0
C     4.1    1.0    1.2
N     3.3    1.2    2.5
C     3.9    1.7   -1.2
C     3.0    2.6   -0.5
H     0.4   -0.2   -1.2
H     1.8   -0.2   -2.1
H     2.5   -0.9    0.0
H     1.4    0.3    0.7
H     4.9    1.7    1.2
H     4.5   -0.0    1.3
H     2.9    2.1    2.5
H     3.8    1.0    3.3
H     3.5    1.3   -2.2
H     5.0    1.9   -1.2
H     3.4    3.4    0.1
H     2.0    2.8   -1.0
