          17
 frame:         4445
O     1.6   -0.3    0.7
C     2.9   -0.2    0.0
C     3.2    1.2   -0.1
C     4.3    1.7    0.3
C     4.8    3.1    0.1
C     5.6    3.5   -1.1
C     4.2    4.1   -0.8
H     1.3   -1.3    0.6
H     2.8   -0.7   -1.0
H     3.6   -0.8    0.6
H     2.5    1.8   -0.7
H     5.0    1.1    0.9
H     5.2    3.6    1.1
H     5.7    2.8   -1.9
H     6.4    4.2   -1.0
H     4.1    5.1   -0.6
H     3.4    3.7   -1.5
