          15
 frame:         3431
C     1.1   -0.0    0.1
C     2.6   -0.0    0.1
O     3.1    1.1    0.8
C     4.4    0.7    1.2
C     4.3   -0.8    1.4
C     5.1   -1.7    2.0
O     3.1   -1.2    0.7
H     0.7   -0.9   -0.5
H     0.7    0.9   -0.4
H     0.7   -0.0    1.1
H     3.0   -0.0   -1.0
H     5.2    0.9    0.4
H     4.7    1.2    2.1
H     4.8   -2.7    2.1
H     5.9   -1.3    2.6
