          13
 frame:         4420
O     1.1    0.3   -0.9
C     2.0    0.2   -0.1
C     3.2    1.2   -0.1
C     3.8    1.4    1.3
O     3.5    2.7    1.8
C     3.0    3.4    0.7
C     2.8    2.6   -0.4
H     2.1   -0.6    0.6
H     3.9    0.8   -0.8
H     4.9    1.3    1.3
H     3.4    0.6    2.1
H     2.8    4.4    0.9
H     2.4    3.0   -1.3
