          15
 frame:         1872
C     1.0   -0.1   -0.0
C     2.5    0.0   -0.0
N     3.3   -0.6   -1.2
C     3.2    0.9   -1.0
C     4.5    1.6   -0.6
C     5.3    1.9   -1.8
N     6.0    2.2   -2.8
H     0.6    0.7    0.7
H     0.7   -1.1    0.3
H     0.6    0.2   -1.0
H     3.0   -0.2    0.9
H     2.7   -0.9   -1.9
H     2.6    1.5   -1.7
H     5.1    0.9    0.0
H     4.4    2.5   -0.1
