          12
 frame:         5931
C     1.1   -0.1   -0.5
O     2.5   -0.0   -0.2
C     2.9    1.3   -0.1
C     2.4    2.0    1.1
C     1.9    2.6    2.0
C     4.4    1.3    0.0
N     5.6    1.3    0.1
H     0.9   -1.2   -0.6
H     0.9    0.4   -1.5
H     0.5    0.3    0.3
H     2.7    1.9   -1.0
H     1.4    3.1    2.9
