          20
 frame:         2118
C     2.7   -0.9    1.2
C     2.5   -0.0    0.0
C     1.6   -0.4   -0.9
C     3.2    1.3    0.0
C     3.2    2.0   -1.4
C     2.4    2.3    1.0
N     4.6    1.1    0.4
H     3.8   -1.2    1.3
H     2.1   -1.8    1.2
H     2.5   -0.4    2.2
H     1.1   -1.4   -0.9
H     1.5    0.2   -1.8
H     3.7    1.3   -2.1
H     3.8    2.9   -1.3
H     2.2    2.2   -1.7
H     2.4    1.9    2.0
H     1.4    2.4    0.7
H     2.9    3.2    1.0
H     4.6    0.8    1.4
H     5.1    2.0    0.4
