          14
 frame:         7037
C     1.0    0.1    0.1
C     2.5    0.2    0.2
C     3.2    1.1   -0.4
S     5.0    1.1   -0.2
N     5.3    2.6    0.5
O     5.4    0.0    0.7
O     5.5    1.1   -1.6
H     0.7   -0.9   -0.3
H     0.6    0.8   -0.5
H     0.5    0.1    1.1
H     3.0   -0.6    0.9
H     2.9    1.9   -1.0
H     6.0    3.0   -0.1
H     5.6    2.4    1.4
