          14
 frame:          189
C     0.9   -0.0   -0.0
C     2.5    0.0    0.1
N     3.2   -0.6   -1.1
C     3.0    1.5    0.1
O     4.4    1.5    0.1
H     0.5    0.5    0.8
H     0.6   -1.0   -0.1
H     0.6    0.5   -1.0
H     2.8   -0.5    1.0
H     2.8   -0.4   -1.9
H     3.1   -1.6   -1.0
H     2.6    2.0    1.0
H     2.6    2.0   -0.8
H     4.7    0.8   -0.4
