          15
 frame:         4165
C     1.3   -0.4   -0.7
O     2.6   -0.2   -0.3
C     3.1    1.1   -0.2
C     2.1    2.2   -0.1
C     4.5    1.2   -0.1
C     5.1    2.4    0.1
C     5.7    3.5    0.3
H     1.2   -1.5   -0.7
H     1.1   -0.0   -1.7
H     0.6   -0.0    0.0
H     1.4    2.0    0.8
H     1.5    2.3   -0.9
H     2.7    3.1    0.1
H     5.1    0.3   -0.2
H     6.2    4.4    0.5
