          14
 frame:         4938
C     1.6   -0.7   -0.7
C     2.3    0.4   -1.0
C     3.0    1.3   -0.1
C     4.3    1.9   -0.4
N     3.1    2.7   -0.4
C     2.8    3.7    0.5
O     3.6    4.6    0.8
H     1.1   -1.4   -1.4
H     1.4   -1.0    0.4
H     2.4    0.6   -2.1
H     2.8    1.1    1.0
H     4.8    1.7   -1.3
H     5.0    2.1    0.5
H     1.7    3.8    0.7
