          16
 frame:         2349
C     1.1    0.2    0.1
C     2.6   -0.0   -0.1
C     2.8   -0.8   -1.3
N     3.0   -1.5   -2.3
C     3.4    1.3   -0.2
C     3.9    1.9    1.1
C     4.9    1.3    0.2
H     0.9    0.8    1.0
H     0.5   -0.7    0.1
H     0.7    0.8   -0.8
H     3.0   -0.6    0.7
H     3.1    1.9   -1.0
H     3.6    1.4    2.0
H     3.9    3.0    1.2
H     5.5    1.9   -0.4
H     5.3    0.3    0.5
