          15
 frame:         3415
C     1.0    0.0    0.1
C     2.5    0.0    0.0
O     3.1    1.1    0.8
C     4.5    0.6    1.2
C     4.3   -0.9    1.5
C     3.2   -1.3    0.6
O     2.8   -2.4    0.3
H     0.6   -0.8   -0.5
H     0.6    1.0   -0.3
H     0.7   -0.0    1.1
H     2.9    0.1   -1.0
H     5.1    0.8    0.3
H     4.8    1.2    2.0
H     5.2   -1.5    1.3
H     4.0   -1.1    2.5
