          12
 frame:          957
O     2.7   -1.0   -1.2
C     2.2   -0.1   -0.3
O     1.0   -0.1   -0.0
C     3.2    1.0    0.2
C     4.6    0.5    0.2
C     5.5    0.9   -0.8
H     3.6   -0.8   -1.3
H     2.8    1.2    1.2
H     3.0    1.8   -0.5
H     4.9   -0.2    1.0
H     5.2    1.6   -1.6
H     6.5    0.5   -0.7
