          16
 frame:         2138
C     1.1   -0.1    0.3
C     2.6    0.0   -0.1
C     2.9   -0.8   -1.4
C     2.9    1.5   -0.2
C     3.3    2.1   -1.3
C     2.8    2.2    1.0
N     2.6    2.8    2.0
H     0.8    0.4    1.2
H     0.8   -1.2    0.4
H     0.4    0.2   -0.5
H     3.2   -0.4    0.7
H     2.3   -0.4   -2.2
H     2.7   -1.8   -1.2
H     4.0   -0.7   -1.6
H     3.5    1.6   -2.3
H     3.6    3.2   -1.3
