          16
 frame:         5414
C     1.9   -0.6   -1.3
C     2.5   -0.1    0.0
N     3.2    1.2   -0.1
C     4.5    1.3   -0.3
O     5.3    0.4   -0.4
O     4.9    2.6   -0.6
C     6.3    2.8   -0.8
H     1.4   -1.5   -1.2
H     2.7   -0.7   -2.0
H     1.2    0.1   -1.7
H     3.2   -0.8    0.4
H     1.7    0.0    0.8
H     2.6    2.1   -0.2
H     6.4    3.9   -1.0
H     6.6    2.3   -1.8
H     6.9    2.4   -0.0
