          16
 frame:          833
C     1.0   -0.0    0.1
C     2.6   -0.1    0.0
O     3.1    1.2   -0.0
C     4.5    1.3   -0.1
C     4.9    2.7   -0.0
O     4.5    3.4    1.2
H     0.6   -1.0    0.1
H     0.7    0.5   -0.8
H     0.7    0.6    1.0
H     2.9   -0.7   -0.8
H     3.0   -0.6    0.9
H     4.9    0.8   -1.0
H     4.9    0.7    0.8
H     4.6    3.2   -0.9
H     6.0    2.8   -0.0
H     3.5    3.2    1.2
