          14
 frame:          484
C     0.9   -0.3   -0.7
C     2.1   -0.2   -0.1
C     3.0    1.0   -0.2
N     4.3    0.7   -0.8
C     5.5    1.2   -0.3
N     6.7    1.1   -0.8
H     0.3   -1.1   -0.6
H     0.5    0.6   -1.3
H     2.5   -1.0    0.5
H     3.2    1.4    0.8
H     2.5    1.8   -0.8
H     4.3    0.2   -1.7
H     5.4    1.7    0.7
H     6.7    0.6   -1.7
