          19
 frame:         1492
C     2.8   -0.9   -1.1
C     2.5   -0.0    0.1
C     3.0    1.4    0.0
C     2.5    2.3    1.2
C     2.9    3.8    1.1
C     4.5    1.4    0.0
C     5.7    1.4    0.0
H     2.4   -1.9   -0.9
H     3.9   -1.0   -1.1
H     2.5   -0.5   -2.0
H     2.8   -0.5    1.1
H     1.4    0.1    0.2
H     2.7    1.9   -0.9
H     2.8    1.9    2.1
H     1.4    2.2    1.1
H     4.0    3.9    1.1
H     2.5    4.4    1.9
H     2.5    4.2    0.1
H     6.8    1.4    0.0
