          14
 frame:          748
C     1.0    0.0   -0.1
C     2.5   -0.0   -0.0
C     3.1   -1.4   -0.1
C     3.2    1.1    0.1
C     4.7    1.3    0.2
O     5.3    2.3    0.3
H     0.6    1.0   -0.1
H     0.6   -0.6    0.7
H     0.7   -0.5   -1.1
H     2.7   -2.0    0.8
H     4.2   -1.4    0.1
H     2.9   -1.9   -1.0
H     2.7    2.1    0.1
H     5.3    0.3    0.2
