          21
 frame:         2726
C     2.3   -0.0   -1.8
N     3.4    0.9   -1.5
C     3.9    0.7   -0.1
C     5.2    1.5    0.1
C     5.6    1.4    1.6
C     6.4    0.9   -0.8
N     4.9    2.9   -0.3
H     1.8    0.2   -2.8
H     1.4   -0.0   -1.0
H     2.6   -1.1   -1.9
H     3.0    1.8   -1.5
H     4.2   -0.4   -0.1
H     3.2    0.9    0.7
H     4.8    1.9    2.2
H     6.5    2.0    1.8
H     5.7    0.4    1.9
H     6.1    0.9   -1.8
H     6.6   -0.1   -0.5
H     7.3    1.6   -0.7
H     4.9    3.0   -1.3
H     5.6    3.5    0.1
