          14
 frame:          240
C     1.5   -0.3   -0.0
C     0.4   -1.4    0.0
C    -0.9   -1.1    0.0
C    -1.5    0.3    0.0
C    -0.4    1.4    0.0
C     0.9    1.1    0.0
H     2.1   -0.4    0.9
H     2.1   -0.4   -0.9
H     0.8   -2.4   -0.0
H    -1.6   -2.0    0.0
H    -2.2    0.4   -0.8
H    -2.1    0.4    0.9
H    -0.8    2.4    0.0
H     1.6    2.0   -0.0
