          18
 frame:         2439
C     3.1   -1.1   -0.8
C     2.6    0.1    0.0
N     3.3    1.3   -0.2
C     3.2    1.9   -1.6
C     3.4    3.4   -1.4
C     3.3    3.7   -0.1
C     3.0    2.4    0.8
H     2.6   -2.0   -0.5
H     4.2   -1.2   -0.6
H     3.0   -0.9   -1.9
H     2.7   -0.1    1.1
H     1.5    0.2   -0.2
H     2.2    1.7   -2.0
H     4.0    1.5   -2.2
H     3.5    4.1   -2.2
H     3.3    4.7    0.4
H     3.7    2.3    1.6
H     2.0    2.4    1.1
