          12
 frame:          872
C     1.6   -0.1   -0.3
O     2.9    0.2   -0.1
C     3.3    1.5   -0.1
C     2.6    2.6   -0.3
C     4.8    1.6    0.1
O     5.4    2.6    0.2
H     1.4   -1.1   -0.2
H     1.2    0.3   -1.3
H     0.9    0.4    0.5
H     1.5    2.5   -0.5
H     3.1    3.5   -0.3
H     5.3    0.6    0.3
