          19
 frame:         3180
C     1.0   -0.1    0.0
C     2.5   -0.0   -0.0
C     3.3   -0.7   -1.1
C     2.7   -1.4   -2.3
C     3.3    0.8   -1.0
C     4.5    1.6   -0.6
O     5.4    1.8   -1.7
H     0.7    0.8    0.6
H     0.7   -1.0    0.5
H     0.6    0.0   -1.0
H     3.0   -0.1    1.0
H     4.3   -1.1   -0.8
H     1.8   -0.9   -2.6
H     2.4   -2.5   -2.0
H     3.4   -1.5   -3.1
H     2.7    1.3   -1.8
H     5.0    1.1    0.2
H     4.2    2.6   -0.3
H     5.6    1.0   -2.1
