          18
 frame:         1599
C     0.8   -1.3    0.5
C     1.7   -0.1    0.1
N     1.0    1.0   -0.5
C    -0.1    1.6    0.3
C    -1.4    0.8    0.2
C    -1.5   -0.5   -0.1
C    -0.4   -1.5   -0.4
H     1.4   -2.2    0.6
H     0.5   -1.1    1.5
H     2.4   -0.5   -0.7
H     2.3    0.2    0.9
H     1.6    1.7   -0.8
H     0.2    1.7    1.4
H    -0.3    2.6   -0.1
H    -2.3    1.4    0.4
H    -2.5   -0.9   -0.2
H    -0.8   -2.5   -0.2
H    -0.1   -1.5   -1.5
