          15
 frame:         6846
O     1.4    0.4    1.9
N     2.7    0.4    1.2
C     2.8    1.4    0.3
C     4.0    1.5   -0.5
C     4.7    2.8   -0.2
C     5.5    3.5   -1.3
N     4.1    4.0   -0.9
H     1.5   -0.4    2.4
H     2.0    2.1    0.2
H     3.8    1.4   -1.6
H     4.7    0.7   -0.3
H     5.1    3.0    0.8
H     5.5    3.1   -2.3
H     6.3    4.1   -1.0
H     4.2    4.8   -0.3
