          13
 frame:         6650
O     1.9   -0.4   -1.2
C     2.1    0.1   -0.2
C     3.1    1.2   -0.0
C     3.8    1.3    1.4
N     3.9    2.8    1.6
N     2.9    3.4    0.9
C     2.5    2.6   -0.1
H     1.5   -0.1    0.7
H     3.9    1.1   -0.8
H     4.7    0.8    1.4
H     3.1    0.8    2.1
H     3.9    3.1    2.6
H     1.8    3.0   -0.8
