          14
 frame:          725
C     1.6    0.1   -1.4
C     2.4   -0.1   -0.3
C     3.1    0.9    0.5
C     4.6    0.6    0.6
C     5.5    1.2   -0.4
O     5.4    1.7    1.0
H     1.1   -0.7   -2.0
H     1.5    1.1   -1.8
H     2.5   -1.2    0.1
H     2.7    0.9    1.5
H     2.9    1.9    0.0
H     4.8   -0.3    1.0
H     5.2    1.9   -1.1
H     6.5    0.7   -0.6
