          12
 frame:          321
C     0.4    1.5    0.5
C     0.9    0.4   -0.3
N     0.9   -0.9    0.3
N    -0.4   -1.4    0.6
C    -1.2   -0.4    0.2
C    -0.6    0.8   -0.4
H     0.7    2.5    0.1
H     0.3    1.4    1.5
H     1.6    0.5   -1.1
H     1.5   -1.7   -0.1
H    -2.3   -0.6    0.3
H    -1.0    1.3   -1.3
