          12
 frame:          654
C     1.5   -0.3    0.1
C     0.4   -1.3   -0.0
C    -0.9   -1.0   -0.1
O    -1.4    0.2   -0.2
C    -0.5    1.3   -0.1
C     0.9    1.1   -0.0
H     2.1   -0.4    1.0
H     2.2   -0.4   -0.8
H     0.7   -2.4    0.0
H    -1.7   -1.8   -0.1
H    -0.9    2.2   -0.1
H     1.5    2.0    0.0
