          13
 frame:         4536
O     4.1    2.2   -2.9
C     3.3    2.7   -2.1
O     3.3    2.7   -0.8
C     4.5    2.1   -0.2
C     5.7    3.1   -0.2
C     5.5    4.3    0.6
C     5.3    5.3    1.3
H     2.3    3.1   -2.5
H     4.8    1.2   -0.8
H     4.2    1.9    0.8
H     6.0    3.4   -1.2
H     6.6    2.6    0.2
H     5.1    6.2    1.9
