          15
 frame:         1857
C     0.9    0.1   -0.0
C     2.4    0.1   -0.0
C     3.3    1.1    0.0
N     4.5    0.6    0.0
N     4.6   -0.7    0.0
C     3.3   -1.1   -0.0
C     2.9   -2.5   -0.0
H     0.5    1.1   -0.0
H     0.5   -0.4    0.9
H     0.5   -0.4   -0.9
H     3.1    2.2    0.0
H     5.4    1.1    0.0
H     1.8   -2.6   -0.0
H     3.3   -3.1    0.9
H     3.3   -3.0   -0.9
