          17
 frame:         5174
C     2.2   -0.9   -1.6
C     2.3   -0.6   -0.1
C     3.3    0.6    0.2
N     4.6    0.3   -0.2
C     5.2    1.0   -1.1
N     6.5    0.7   -1.5
O     7.1   -0.3   -0.7
H     1.5   -1.8   -1.8
H     3.2   -1.2   -2.0
H     1.8   -0.1   -2.1
H     2.7   -1.5    0.4
H     1.3   -0.4    0.3
H     3.2    0.8    1.3
H     2.9    1.5   -0.3
H     4.8    1.9   -1.6
H     7.1    1.5   -1.6
H     6.3   -0.5   -0.1
