          17
 frame:         1263
C     1.1    0.0    0.3
C     2.4    0.0    0.1
C     3.2    1.3   -0.1
C     4.4    0.8   -0.9
C     4.7   -0.7   -0.4
C     3.3   -1.2   -0.1
C     2.9   -2.5   -0.1
H     0.5   -0.9    0.4
H     0.5    0.9    0.4
H     3.6    1.6    0.9
H     2.7    2.1   -0.5
H     4.2    0.8   -2.0
H     5.3    1.4   -0.8
H     5.2   -1.3   -1.1
H     5.2   -0.7    0.5
H     1.9   -2.8    0.1
H     3.6   -3.3   -0.3
