          18
 frame:         5321
C     1.1    0.1    0.2
C     2.6    0.0   -0.1
N     2.9   -0.6   -1.5
C     3.3    1.4   -0.1
C     3.8    1.9    1.2
C     4.8    1.4    0.2
O     5.6    2.4   -0.4
H     1.0    0.6    1.2
H     0.6   -0.9    0.2
H     0.6    0.8   -0.5
H     3.1   -0.7    0.6
H     2.4   -0.1   -2.2
H     2.4   -1.5   -1.5
H     2.9    2.1   -0.8
H     3.6    1.3    2.1
H     3.7    3.0    1.4
H     5.3    0.5    0.4
H     5.8    2.1   -1.3
