          18
 frame:         5749
C     0.8   -0.3    0.0
N     2.3   -0.1    0.1
C     2.7    1.2   -0.0
C     4.2    1.4   -0.0
O     4.7    0.8   -1.2
C     6.0    0.8   -1.4
C     7.0    1.3   -0.6
H     0.6   -1.4    0.1
H     0.4    0.1   -0.9
H     0.3    0.1    0.9
H     2.7   -0.7   -0.6
H     2.3    1.8    0.8
H     2.3    1.7   -1.0
H     4.6    0.9    0.9
H     4.5    2.5   -0.0
H     6.3    0.3   -2.3
H     6.7    1.9    0.4
H     8.0    1.3   -0.8
