          17
 frame:         5952
C     2.9    3.9    1.2
O     4.1    3.2    1.1
C     4.3    2.6   -0.1
C     5.7    1.9   -0.1
C     6.9    2.8   -0.2
N     7.0    3.6    1.0
N     7.8    2.9   -1.1
H     2.8    4.3    2.2
H     2.0    3.3    1.0
H     2.9    4.7    0.5
H     4.3    3.4   -0.9
H     3.5    1.9   -0.3
H     5.7    1.2   -1.0
H     5.7    1.2    0.7
H     6.1    3.8    1.5
H     7.7    4.3    0.9
H     7.6    2.2   -1.8
