          15
 frame:         1535
C     0.6   -0.0    0.0
C     2.1    0.3   -0.0
C     1.1    1.4   -0.2
C     0.8    2.5    0.8
C     0.0    3.5   -0.1
N     0.1    3.2   -1.3
N     0.9    2.0   -1.5
H     0.2   -0.3    1.0
H     0.2   -0.6   -0.8
H     2.7   -0.0   -0.9
H     2.7    0.3    0.9
H     1.8    3.0    1.1
H     0.3    2.2    1.7
H    -0.5    4.3    0.2
H     0.6    1.5   -2.3
