          15
 frame:         1085
C     1.6   -0.3   -0.7
O     3.0   -0.2   -0.5
N     3.4    1.2   -0.3
C     4.6    1.3   -0.1
C     5.6    0.2   -0.1
C     5.1    2.7    0.2
H     1.4   -1.3   -0.9
H     1.3    0.3   -1.6
H     1.1    0.0    0.2
H     5.3   -0.6    0.6
H     6.6    0.6    0.1
H     5.6   -0.3   -1.1
H     4.2    3.4    0.2
H     5.8    3.0   -0.5
H     5.6    2.8    1.2
