          18
 frame:         5925
C     3.1   -0.2    0.7
O     2.3    0.9    0.4
C     3.0    2.1    0.1
C     1.9    3.2   -0.1
C     4.3    2.2    0.1
C     5.1    3.5   -0.2
N     6.0    3.8    1.0
H     2.3   -1.0    0.9
H     3.7   -0.1    1.6
H     3.7   -0.5   -0.1
H     1.2    3.2    0.7
H     1.4    2.9   -1.1
H     2.4    4.2   -0.3
H     4.9    1.3    0.4
H     4.4    4.3   -0.5
H     5.8    3.3   -1.0
H     5.4    4.0    1.8
H     6.5    4.6    0.8
