          23
 frame:         1223
C     1.0   -0.9    1.3
C     2.3   -0.4    1.9
C     2.8    1.0    1.5
C     1.7    2.1    1.8
C     1.3    2.3    3.3
C     4.1    1.4    2.1
C     4.7    2.7    1.7
H     0.8   -1.9    1.5
H     1.0   -0.8    0.2
H     0.1   -0.3    1.7
H     3.1   -1.1    1.6
H     2.3   -0.5    3.0
H     2.9    1.0    0.4
H     0.8    1.9    1.2
H     2.0    3.1    1.4
H     0.9    1.4    3.7
H     0.6    3.1    3.4
H     2.2    2.6    3.9
H     4.8    0.6    1.8
H     4.1    1.3    3.2
H     4.8    2.8    0.6
H     5.8    2.8    2.1
H     4.2    3.5    2.1
