          16
 frame:         1627
C     0.9    0.0   -0.6
C     2.2   -0.1    0.2
C     2.6   -1.4    1.0
C     4.0   -0.6    1.0
N     3.5   -0.2   -0.4
C     3.6    0.6    1.8
C     2.5    1.0    1.4
H     0.0   -0.0   -0.0
H     0.9   -0.8   -1.4
H     0.9    1.0   -1.2
H     2.6   -2.3    0.4
H     2.1   -1.6    2.0
H     4.9   -1.1    1.1
H     3.9    0.7   -0.7
H     4.2    1.0    2.6
H     1.8    1.8    1.7
