          21
 frame:         3681
C     2.9   -0.9    1.3
C     2.5   -0.0    0.1
C     3.1    1.4    0.1
C     2.5    2.3    1.2
C     4.7    1.5    0.1
C     5.3    0.6   -0.9
O     5.1    2.8    0.1
H     2.4   -1.9    1.3
H     2.6   -0.4    2.3
H     4.0   -1.1    1.4
H     1.4    0.1    0.1
H     2.9   -0.6   -0.8
H     2.8    1.9   -0.8
H     2.8    1.9    2.2
H     1.4    2.3    1.2
H     2.9    3.3    1.2
H     5.0    1.1    1.1
H     5.0    0.9   -1.9
H     5.2   -0.5   -0.8
H     6.4    0.8   -0.9
H     4.9    3.2   -0.8
