          16
 frame:         6468
O     0.8   -0.1   -0.1
C     2.1    0.0    0.2
C     3.1   -0.8   -0.6
C     2.5   -1.4   -1.9
N     2.6   -0.4   -3.0
C     2.6    0.9   -2.2
C     3.1    0.7   -0.8
H     0.4    0.8    0.1
H     2.4    0.1    1.2
H     3.9   -1.4   -0.1
H     3.1   -2.3   -2.3
H     1.5   -1.7   -1.8
H     3.6   -0.4   -3.4
H     3.2    1.7   -2.8
H     1.5    1.3   -2.2
H     3.9    1.3   -0.4
