          18
 frame:         2012
C     2.3   -0.4   -1.6
C     2.5    0.1   -0.2
C     3.5    1.3   -0.0
N     3.6    1.7    1.4
C     3.1    3.1    1.5
C     2.9    3.5    0.1
C     3.1    2.5   -0.8
H     1.6   -1.3   -1.6
H     3.3   -0.8   -2.0
H     1.9    0.3   -2.3
H     2.8   -0.7    0.5
H     1.5    0.5    0.2
H     4.5    0.9   -0.4
H     4.6    1.7    1.7
H     3.9    3.7    2.0
H     2.2    3.2    2.1
H     2.5    4.5   -0.2
H     2.9    2.6   -1.8
