          13
 frame:         7208
S     1.5    0.4    0.9
C     2.9   -0.0    0.1
N     3.1   -1.2   -0.5
C     4.4   -1.4   -1.1
C     5.0    0.1   -0.9
C     4.2    1.2   -1.5
N     4.1    0.8   -0.0
H     2.4   -1.9   -0.5
H     5.1   -2.1   -0.6
H     4.4   -1.7   -2.2
H     6.1    0.1   -0.7
H     4.8    2.2   -1.6
H     3.4    1.0   -2.1
