          18
 frame:         2968
N     2.8   -0.7   -1.2
C     2.5   -0.2    0.1
C     3.0    1.2    0.3
C     2.5    1.8    1.6
C     1.7    2.9    1.7
C     4.5    1.3    0.2
C     5.2    1.8   -0.8
H     2.5   -1.7   -1.3
H     3.8   -0.7   -1.4
H     3.0   -0.8    0.9
H     1.4   -0.2    0.3
H     2.6    1.8   -0.6
H     2.9    1.3    2.5
H     1.3    3.4    0.8
H     1.4    3.3    2.7
H     5.0    0.8    1.0
H     4.7    2.3   -1.7
H     6.3    1.9   -0.8
