          15
 frame:         3129
C     1.9    0.1   -0.6
C     1.7   -0.2    0.8
C     0.5    0.1   -0.1
C    -0.4    1.3    0.1
O    -1.7    0.7    0.2
C    -1.5   -0.7    0.2
O    -0.3   -1.0   -0.5
H     2.3    1.1   -0.9
H     2.2   -0.7   -1.3
H     1.8   -1.2    1.1
H     1.9    0.5    1.6
H    -0.2    1.9    1.0
H    -0.4    1.9   -0.8
H    -2.3   -1.2   -0.3
H    -1.4   -1.1    1.3
