          14
 frame:         6240
N     3.0   -1.1   -0.5
C     2.4    0.1    0.1
C     3.2    1.4   -0.1
O     3.1    1.9   -1.4
C     3.0    3.2   -1.3
C     2.9    3.6    0.0
O     2.8    2.4    0.8
H     2.4   -1.8   -0.6
H     3.8   -1.4    0.1
H     2.2   -0.0    1.2
H     1.4    0.3   -0.3
H     4.3    1.2    0.1
H     3.1    3.9   -2.2
H     2.7    4.5    0.5
