          13
 frame:         4326
O     1.2   -0.0    0.6
C     2.5   -0.0    0.0
C     2.8   -1.2   -0.9
C     3.5   -0.7   -2.1
C     3.4    0.7   -2.1
C     2.6    1.2   -1.0
O     2.1    2.3   -0.8
H     0.9    0.9    0.7
H     3.3    0.1    0.8
H     1.9   -1.7   -1.1
H     3.4   -2.0   -0.4
H     4.0   -1.3   -2.8
H     3.8    1.3   -2.9
