          16
 frame:          255
C     1.1   -0.4   -0.4
C     1.6    0.5    0.5
C     2.7    1.5    0.1
C     2.5    3.0    0.5
C     4.0    3.1    0.9
C     4.0    1.6    1.1
H     0.3   -1.1   -0.1
H     1.5   -0.4   -1.4
H     1.2    0.6    1.5
H     3.0    1.4   -0.9
H     1.8    3.1    1.3
H     2.1    3.7   -0.3
H     4.6    3.4    0.1
H     4.2    3.7    1.8
H     4.8    1.0    0.8
H     3.7    1.3    2.1
