          15
 frame:         4489
O     1.4   -0.4   -1.2
C     2.1    0.1   -0.2
C     2.8    1.4   -0.3
C     4.3    1.3    0.1
C     5.0    2.6    0.1
C     4.7    3.5    1.3
O     3.9    3.2    2.2
H     2.2   -0.4    0.7
H     2.3    2.1    0.4
H     2.7    1.9   -1.3
H     4.8    0.6   -0.7
H     4.4    0.8    1.0
H     4.9    3.2   -0.8
H     6.1    2.5    0.2
H     5.2    4.5    1.3
