          15
 frame:         4197
C     4.5   -0.9    0.5
O     3.3   -0.1    0.4
C     3.4    1.2    0.3
C     4.5    2.0    0.3
C     4.6    3.4    0.2
C     3.2    4.2    0.1
O     5.6    4.0    0.3
H     4.2   -1.9    0.5
H     5.0   -0.6    1.4
H     5.1   -0.7   -0.4
H     2.4    1.7    0.2
H     5.5    1.5    0.4
H     2.6    4.0    0.9
H     2.7    3.9   -0.8
H     3.5    5.3    0.0
