          16
 frame:         2582
C     1.2   -0.2    0.1
N     2.6   -0.1   -0.1
C     3.1   -0.6   -1.4
C     3.1    0.9   -1.1
C     4.4    1.6   -0.7
C     5.1    2.2   -1.8
C     5.6    2.6   -2.8
H     0.9    0.6    0.8
H     0.9   -1.2    0.5
H     0.6    0.0   -0.8
H     2.4   -1.0   -2.1
H     4.1   -1.1   -1.3
H     2.4    1.4   -1.6
H     5.0    1.0   -0.1
H     4.1    2.5    0.0
H     6.2    3.0   -3.7
