          20
 frame:         2106
C     0.8    0.9    0.1
C     2.2    0.8    0.4
C     3.2    1.3   -0.4
C     4.7    1.1   -0.2
C     5.4    0.3   -1.3
C     5.3    2.5   -0.1
N     6.7    2.5    0.3
H     0.3   -0.1    0.1
H     0.6    1.4   -0.8
H     0.2    1.5    0.9
H     2.5    0.3    1.3
H     2.9    1.8   -1.4
H     4.8    0.6    0.8
H     5.2    0.8   -2.3
H     5.0   -0.7   -1.3
H     6.5    0.3   -1.2
H     4.7    3.1    0.7
H     5.2    3.1   -1.0
H     6.9    2.1    1.2
H     7.2    3.4    0.2
