          19
 frame:         2402
C     1.8   -1.3    1.0
C     1.8   -0.2   -0.0
C     3.1    0.7    0.1
N     4.3   -0.0   -0.3
C     5.6    0.6   -0.2
C     6.6   -0.3   -0.8
N     5.9    1.7    0.3
H     0.9   -1.9    0.9
H     1.8   -0.9    2.0
H     2.7   -2.0    0.9
H     1.0    0.5    0.1
H     1.8   -0.6   -1.1
H     3.2    1.1    1.1
H     3.0    1.6   -0.6
H     4.2   -0.8   -1.0
H     6.7   -1.3   -0.4
H     7.6    0.2   -0.6
H     6.5   -0.4   -1.9
H     5.0    2.2    0.7
