          16
 frame:         1667
C     1.0   -0.1    0.3
C     2.4    0.1   -0.1
C     3.1    1.2    0.0
C     4.5    0.9   -0.4
C     5.3   -0.0    0.5
N     4.6   -0.5   -0.8
C     3.2   -1.0   -0.6
H     0.9   -0.8    1.2
H     0.4   -0.5   -0.5
H     0.5    0.9    0.6
H     2.8    2.2    0.3
H     5.1    1.7   -1.0
H     6.4   -0.1    0.5
H     4.8   -0.3    1.4
H     3.3   -1.9    0.1
H     2.9   -1.4   -1.5
