          12
 frame:         7175
O     3.0   -0.8   -0.9
C     2.2    0.0   -0.1
C     2.8    1.4    0.1
N     2.1    2.4    0.7
S     3.0    3.8    0.7
C     4.4    3.1   -0.1
C     4.1    1.7   -0.3
H     2.6   -1.7   -0.9
H     2.1   -0.4    1.0
H     1.1    0.1   -0.5
H     5.3    3.6   -0.3
H     4.8    1.1   -0.8
