          15
 frame:         1287
C     0.9    0.1    0.0
C     2.4   -0.0    0.0
C     3.2   -1.1   -0.0
C     4.6   -0.7   -0.0
C     5.7   -1.5   -0.0
C     4.6    0.8    0.0
C     3.3    1.2    0.0
H     0.5   -0.9    0.0
H     0.6    0.6   -0.9
H     0.6    0.6    0.9
H     2.9   -2.2   -0.0
H     5.7   -2.6   -0.0
H     6.7   -1.1   -0.0
H     5.5    1.4    0.0
H     3.0    2.2    0.0
