          18
 frame:         1554
C    -1.8    0.7    0.3
C    -1.8   -0.7   -0.3
C    -0.3   -0.8    0.1
C     1.1   -1.2   -0.5
N     1.9   -0.1    0.0
C     1.1    1.1    0.6
C    -0.2    0.7   -0.1
H    -2.4    1.5   -0.2
H    -1.9    0.7    1.4
H    -1.9   -0.7   -1.4
H    -2.5   -1.5    0.1
H    -0.3   -1.1    1.1
H     1.5   -2.2   -0.2
H     1.1   -1.2   -1.6
H     2.5   -0.5    0.8
H     1.1    1.1    1.6
H     1.5    2.0    0.2
H    -0.2    0.9   -1.1
