          18
 frame:         5015
C     1.0   -0.1   -0.1
C     2.5   -0.0    0.1
C     3.0   -0.8    1.3
C     3.1   -0.7   -1.2
C     2.9    1.4    0.0
N     3.6    1.9    1.0
O     3.9    3.3    0.8
H     0.6    0.5   -0.9
H     0.5    0.4    0.8
H     0.6   -1.1   -0.1
H     2.5   -0.3    2.2
H     4.1   -0.7    1.4
H     2.6   -1.8    1.3
H     2.8   -0.2   -2.1
H     2.8   -1.8   -1.3
H     4.2   -0.7   -1.1
H     2.6    2.0   -0.8
H     4.3    3.6    1.6
