          17
 frame:          354
C     1.0    0.0   -0.0
C     2.5   -0.0    0.0
C     3.3   -0.7   -1.0
C     2.8   -1.5   -2.2
C     3.3    0.8   -1.0
N     4.5    1.5   -0.7
H     0.6    0.8    0.6
H     0.5   -0.9    0.3
H     0.6    0.1   -1.1
H     2.9   -0.0    1.0
H     4.2   -1.2   -0.6
H     1.9   -1.0   -2.6
H     2.5   -2.5   -1.9
H     3.5   -1.6   -3.0
H     2.8    1.2   -1.8
H     5.2    0.9   -0.1
H     4.3    2.3   -0.1
