          17
 frame:         5651
C     2.8   -1.1   -0.7
N     2.3    0.2   -0.1
C     3.3    1.2    0.1
C     3.5    2.2   -1.0
N     2.6    2.3   -2.2
C     2.9    2.6    0.3
O     3.7    3.3    1.3
H     1.9   -1.8   -0.8
H     3.6   -1.6   -0.1
H     3.1   -0.9   -1.7
H     1.8   -0.0    0.8
H     4.3    0.8    0.6
H     4.5    2.6   -1.2
H     1.8    1.8   -2.0
H     3.1    1.8   -3.0
H     1.8    2.8    0.3
H     3.7    4.2    0.9
