          17
 frame:         3957
C     2.7   -1.6   -0.6
C     2.0   -0.3   -0.2
O     1.1   -0.6    0.8
C     3.0    0.8    0.1
C     4.0    0.5    1.2
C     3.2    1.9   -0.8
O     2.3    2.1    0.2
H     3.5   -1.5   -1.4
H     2.0   -2.4   -0.9
H     3.3   -2.0    0.2
H     1.5    0.0   -1.1
H     0.7    0.2    1.1
H     4.5    1.5    1.6
H     4.8   -0.2    0.9
H     3.5    0.1    2.1
H     2.8    1.8   -1.8
H     4.2    2.5   -0.8
