          15
 frame:         1617
C     0.9   -1.2    0.9
C     1.1   -0.4   -0.4
C     0.9    1.1   -0.4
N    -0.2    1.4    0.5
N    -1.4    0.8    0.2
C    -1.4   -0.5   -0.1
C    -0.1   -1.2   -0.2
H     1.5   -2.1    1.0
H     0.6   -0.7    1.8
H     1.9   -0.8   -1.1
H     1.8    1.6    0.0
H     0.8    1.4   -1.4
H    -0.4    2.4    0.5
H    -2.3   -1.0   -0.2
H    -0.2   -2.2   -0.8
