          17
 frame:         1968
C     0.5    1.2    0.2
C     1.7    0.8   -0.5
C     3.0    1.3    0.1
C     4.2    1.7   -0.6
N     3.3    2.8   -0.1
C     3.8    3.4    1.1
N     3.5    4.6    1.4
H    -0.5    0.8   -0.3
H     0.3    2.3    0.4
H     0.5    0.7    1.2
H     1.7    1.3   -1.6
H     1.8   -0.2   -0.7
H     3.1    1.0    1.1
H     4.2    1.7   -1.7
H     5.2    1.6   -0.1
H     4.5    2.9    1.7
H     2.9    5.0    0.8
