          18
 frame:         2838
N     0.8   -0.1    0.4
C     2.2   -0.0    0.1
C     3.0    1.1    0.8
C     4.1    0.1    1.1
C     3.1   -1.1    0.8
C     5.3    0.0    0.2
C     5.7    0.9   -0.8
H     0.3   -0.9   -0.0
H     0.3    0.7   -0.1
H     2.4   -0.0   -1.0
H     2.5    1.4    1.7
H     3.3    2.0    0.2
H     4.5    0.1    2.1
H     3.4   -1.9    0.2
H     2.6   -1.4    1.7
H     5.9   -0.9    0.3
H     5.1    1.8   -0.9
H     6.6    0.8   -1.4
