          12
 frame:         1958
C     0.9    0.0   -0.0
C     2.1    0.0   -0.0
C     3.5   -0.0    0.0
C     4.4    1.1    0.0
N     5.7    0.6    0.0
C     5.7   -0.7    0.0
C     4.4   -1.2    0.0
H    -0.2    0.1   -0.0
H     4.2    2.2    0.0
H     6.5    1.2    0.0
H     6.6   -1.3    0.0
H     4.0   -2.2    0.0
