          15
 frame:         4695
C     1.1    0.2   -0.2
C     2.6   -0.2    0.1
C     3.5   -0.6   -1.1
N     3.7    0.7   -0.4
C     3.5    1.9   -1.1
N     3.8    1.9   -2.3
O     3.6    3.3   -2.7
H     0.8    0.9    0.5
H     0.5   -0.7   -0.2
H     1.1    0.7   -1.2
H     2.7   -0.6    1.0
H     3.1   -0.6   -2.1
H     4.2   -1.4   -0.9
H     3.2    2.7   -0.5
H     3.9    3.2   -3.7
