          17
 frame:         4336
O     1.2   -0.1    0.8
C     2.5    0.0    0.1
C     2.5    1.2   -0.8
C     3.9    1.3   -1.6
C     4.3   -0.1   -2.0
C     3.8   -1.2   -1.6
C     2.7   -1.3   -0.6
H     1.1    0.8    1.4
H     3.3    0.2    0.9
H     2.3    2.1   -0.3
H     1.7    1.1   -1.6
H     4.6    1.7   -0.9
H     3.8    2.0   -2.4
H     5.1   -0.1   -2.8
H     4.1   -2.2   -2.0
H     1.7   -1.6   -1.1
H     2.9   -2.1    0.1
