          16
 frame:         2848
N     1.0   -0.1   -0.5
C     2.4    0.0    0.0
C     3.2   -1.2   -0.3
C     4.1   -0.9   -1.3
C     4.0    0.5   -1.8
C     3.1    1.1   -0.8
C     2.9    2.5   -0.5
H     0.4    0.7   -0.3
H     0.5   -0.9    0.0
H     2.4    0.2    1.1
H     3.0   -2.2    0.1
H     4.8   -1.6   -1.8
H     5.0    1.0   -1.7
H     3.6    0.6   -2.8
H     3.4    3.2   -1.1
H     2.2    2.8    0.2
