          20
 frame:         1972
C     2.3   -1.2   -0.7
C     1.9    0.1   -0.1
C     3.1    1.0    0.3
C     3.9    0.4    1.4
N     3.9    1.7   -0.8
C     3.0    2.5    0.1
C     3.6    3.5    1.0
H     1.4   -1.8   -1.1
H     2.8   -1.9    0.0
H     2.9   -1.1   -1.6
H     1.3   -0.0    0.8
H     1.3    0.7   -0.8
H     4.8    1.1    1.7
H     4.3   -0.6    1.2
H     3.4    0.3    2.4
H     3.4    1.5   -1.7
H     2.0    2.8   -0.3
H     4.6    3.2    1.4
H     3.0    3.8    1.8
H     3.8    4.4    0.4
