          21
 frame:         2730
C     1.4   -0.4   -0.2
N     2.8   -0.1   -0.0
C     3.0    1.4   -0.1
C     4.5    1.7    0.0
C     4.8    3.2    0.1
C     6.3    3.5    0.4
N     4.3    3.9   -1.1
H     1.3   -1.5   -0.2
H     0.9   -0.0   -1.1
H     0.8   -0.1    0.7
H     3.4   -0.5   -0.8
H     2.5    1.8    0.8
H     2.6    1.9   -1.0
H     5.0    1.3   -0.8
H     4.9    1.2    0.9
H     4.2    3.7    0.9
H     6.9    3.1   -0.4
H     6.6    3.0    1.3
H     6.5    4.6    0.4
H     4.8    3.6   -1.9
H     4.5    4.9   -1.1
