          16
 frame:          739
C     0.8    0.1    0.1
C     2.3    0.0    0.2
C     3.1    1.0   -0.1
C     4.7    1.0   -0.1
C     5.3   -0.3    0.6
O     5.2    1.2   -1.4
H     0.4   -0.8   -0.5
H     0.5    1.0   -0.3
H     0.3   -0.0    1.1
H     2.7   -0.9    0.7
H     2.8    1.9   -0.6
H     5.0    1.8    0.5
H     5.0   -1.2    0.0
H     4.9   -0.4    1.6
H     6.3   -0.2    0.6
H     4.8    0.6   -2.0
