          15
 frame:         6739
O     2.4   -0.8    1.3
C     2.1   -0.2    0.0
C     2.7    1.2   -0.0
C     4.2    1.1    0.0
N     4.9    1.6   -0.9
N     6.3    1.5   -0.7
C     7.0    1.9   -1.6
H     2.1   -1.7    1.3
H     1.0   -0.1   -0.1
H     2.5   -0.8   -0.8
H     2.4    1.7    0.8
H     2.4    1.7   -0.9
H     4.7    0.6    0.9
H     8.1    1.9   -1.6
H     6.5    2.4   -2.5
