          13
 frame:         6587
O     1.7    0.0    1.4
C     2.4    0.0    0.3
N     2.8   -1.1   -0.3
C     3.9   -0.8   -1.3
C     5.1   -0.1   -0.8
C     3.9    0.7   -1.3
N     2.9    1.1   -0.4
H     2.9   -2.0    0.2
H     3.9   -1.4   -2.2
H     5.3   -0.1    0.3
H     6.0   -0.1   -1.4
H     4.0    1.3   -2.2
H     2.9    2.0    0.1
