          16
 frame:         6214
N     2.0   -0.2   -1.3
C     2.5    0.2   -0.0
C     3.3    1.5   -0.1
C     2.4    2.7   -0.6
O     3.0    3.8    0.2
C     3.3    3.1    1.5
O     3.9    1.9    1.1
H     1.3   -1.0   -1.2
H     2.7   -0.5   -1.9
H     3.2   -0.6    0.5
H     1.7    0.3    0.7
H     4.2    1.3   -0.8
H     1.4    2.5   -0.3
H     2.5    2.9   -1.6
H     4.0    3.7    2.0
H     2.4    3.0    2.1
