          20
 frame:         2275
C     3.0   -0.8    1.2
C     2.6   -0.0   -0.0
C     3.1    1.5   -0.0
C     2.6    2.2   -1.3
N     2.6    2.2    1.1
C     4.6    1.5   -0.0
C     5.4    2.2    0.8
H     2.6   -1.9    1.1
H     2.6   -0.4    2.1
H     4.1   -0.9    1.3
H     1.5   -0.0   -0.1
H     3.0   -0.5   -0.9
H     3.0    1.7   -2.2
H     2.9    3.2   -1.3
H     1.5    2.1   -1.3
H     2.8    1.8    2.0
H     1.6    2.3    1.1
H     5.0    0.9   -0.8
H     5.0    2.9    1.5
H     6.5    2.2    0.7
