          15
 frame:         1835
C     0.9    0.1   -0.0
N     2.4   -0.0   -0.0
C     3.3    1.0    0.0
N     4.5    0.6    0.0
C     4.5   -0.8    0.0
C     5.7   -1.6    0.0
C     3.1   -1.2    0.0
H     0.6    1.1    0.0
H     0.5   -0.4    0.9
H     0.5   -0.4   -0.9
H     2.9    2.1    0.0
H     5.5   -2.7    0.0
H     6.3   -1.4    0.9
H     6.3   -1.4   -0.9
H     2.7   -2.2    0.0
