          15
 frame:         1915
C     1.1    0.1    0.2
C     2.5   -0.1   -0.2
N     3.2    0.8   -0.7
N     4.5    0.3   -1.0
C     5.3    0.1    0.3
C     4.6   -1.1   -0.4
C     3.2   -1.4    0.1
H     0.4   -0.6   -0.4
H     0.8    1.2   -0.1
H     0.9   -0.0    1.2
H     6.3    0.1    0.2
H     4.8    0.5    1.2
H     5.2   -1.8   -0.9
H     3.1   -1.8    1.1
H     2.8   -2.2   -0.6
