          13
 frame:         3511
C     1.8   -0.2   -1.2
C     2.2    0.1   -0.0
C     3.3    1.0    0.2
O     3.9    1.7   -0.9
C     3.1    2.5    0.0
C     3.8    3.5    0.8
C     4.4    4.3    1.5
H     0.9   -0.9   -1.4
H     2.2    0.2   -2.1
H     1.8   -0.4    0.9
H     4.0    0.8    1.0
H     2.2    2.8   -0.4
H     4.9    5.1    2.1
