          15
 frame:         2722
C     0.9   -0.1   -0.0
N     2.4   -0.1   -0.1
C     2.9    1.3   -0.1
C     4.4    1.3   -0.1
C     5.1    2.0   -0.9
C     6.5    2.0   -0.9
N     7.7    2.0   -0.9
H     0.5   -1.1   -0.2
H     0.4    0.5   -0.8
H     0.6    0.2    1.0
H     2.6   -0.5   -1.0
H     2.5    1.7    0.9
H     2.5    2.0   -0.9
H     4.9    0.6    0.6
H     4.7    2.7   -1.6
