          15
 frame:         5162
C     1.0    0.1    0.1
C     2.5   -0.0   -0.1
C     3.1   -1.2   -0.2
N     2.4   -2.5   -0.2
C     3.3    1.2   -0.2
N     4.5    1.2    0.0
O     5.0    2.5   -0.2
H     0.7    1.1   -0.1
H     0.7   -0.2    1.1
H     0.4   -0.6   -0.6
H     4.2   -1.3   -0.5
H     1.6   -2.5    0.3
H     3.0   -3.3   -0.1
H     2.7    2.1   -0.4
H     6.0    2.4    0.0
