          16
 frame:         2476
C     1.1   -0.1    0.4
C     2.6   -0.0   -0.2
N     2.7   -0.7   -1.5
C     3.0    1.4   -0.2
C     3.5    2.0   -1.3
C     2.9    2.1    1.0
C     2.8    2.7    2.1
H     1.0    0.3    1.4
H     0.8   -1.2    0.5
H     0.4    0.3   -0.3
H     3.2   -0.6    0.5
H     2.0   -0.3   -2.1
H     2.6   -1.7   -1.4
H     3.7    1.4   -2.2
H     3.9    3.1   -1.3
H     2.7    3.2    3.0
