          18
 frame:         1889
C     1.0    0.1    0.1
C     2.5   -0.0    0.1
N     3.1    1.1    0.8
C     4.5    0.7    1.2
C     4.3   -0.9    1.5
C     3.1   -1.3    0.7
C     2.6   -2.5    0.5
H     0.6   -0.7   -0.6
H     0.7    1.0   -0.3
H     0.6   -0.1    1.1
H     2.9    0.1   -1.0
H     2.6    1.2    1.7
H     5.1    0.8    0.3
H     4.9    1.2    2.0
H     5.2   -1.4    1.2
H     4.2   -1.0    2.5
H     1.8   -2.7   -0.1
H     3.1   -3.4    1.0
