          17
 frame:         4430
O     2.7    3.9   -0.8
C     2.9    2.9   -1.8
C     3.3    1.6   -1.1
C     4.6    1.8   -0.3
C     5.5    0.5   -0.1
C     6.0    1.5   -1.0
O     7.1    2.3   -0.7
H     2.4    4.8   -1.2
H     3.7    3.2   -2.5
H     2.0    2.8   -2.4
H     3.4    0.8   -1.9
H     2.5    1.3   -0.4
H     4.7    2.5    0.5
H     5.1   -0.5   -0.4
H     6.0    0.5    0.9
H     5.9    1.3   -2.1
H     7.0    3.2   -1.0
