          12
 frame:         6423
N     1.4   -0.0    1.2
C     2.6   -0.2    0.4
O     2.8   -1.1   -0.4
O     3.5    0.8    0.8
C     4.8    0.7    0.1
C     4.9    1.8   -0.8
C     5.1    2.8   -1.5
H     1.3    0.9    1.6
H     0.6   -0.5    0.8
H     4.8   -0.3   -0.4
H     5.5    0.7    0.9
H     5.2    3.6   -2.2
