          19
 frame:         2615
C     1.2   -0.1   -0.2
N     2.6   -0.1    0.2
C     3.0    1.1    0.9
C     4.4    0.6    1.4
C     4.4   -0.9    1.4
N     5.4   -1.4    0.5
C     2.9   -1.2    1.1
H     0.9   -1.0   -0.7
H     1.0    0.8   -0.9
H     0.5    0.0    0.7
H     2.4    1.3    1.7
H     3.1    1.9    0.2
H     5.2    1.0    0.8
H     4.6    1.0    2.4
H     4.7   -1.3    2.4
H     5.1   -1.1   -0.5
H     5.4   -2.5    0.5
H     2.8   -2.2    0.6
H     2.3   -1.2    2.0
