          19
 frame:         3564
C     0.8    0.0    0.0
C     2.4   -0.1   -0.0
C     3.0    1.3   -0.0
C     4.6    1.2   -0.1
C     5.3    0.6    1.0
C     5.7   -0.8    1.1
O     6.7    0.3    0.9
H     0.4   -1.0    0.0
H     0.4    0.6   -0.8
H     0.5    0.5    0.9
H     2.7   -0.6   -1.0
H     2.7   -0.7    0.8
H     2.8    1.8    0.9
H     2.6    1.9   -0.9
H     5.0    2.3   -0.3
H     4.9    0.7   -1.1
H     5.0    1.1    2.0
H     5.6   -1.4    0.1
H     5.8   -1.3    2.0
