          16
 frame:         5587
C     1.1   -0.4   -0.1
N     2.5   -0.4   -0.2
C     3.0   -0.4   -1.6
C     3.1    0.8   -0.8
C     4.4    1.3   -0.2
C     5.2    2.3   -1.0
O     4.8    2.8   -2.1
H     0.8    0.1    0.8
H     0.7   -1.5   -0.1
H     0.6    0.1   -0.9
H     2.3   -0.5   -2.4
H     4.0   -1.0   -1.8
H     2.4    1.6   -1.1
H     5.0    0.5    0.1
H     4.2    1.9    0.8
H     6.1    2.6   -0.6
