          19
 frame:         2998
N     0.9    2.6   -1.1
C     2.1    2.7   -0.3
C     3.3    1.8   -0.9
C     4.6    1.9   -0.1
N     5.6    0.9   -0.6
C     5.2    3.2   -0.1
C     5.4    4.0    0.9
H     0.2    3.2   -0.8
H     0.5    1.6   -1.0
H     2.0    2.4    0.8
H     2.5    3.7   -0.3
H     3.4    2.1   -1.9
H     2.9    0.8   -0.9
H     4.4    1.6    1.0
H     5.8    1.1   -1.5
H     5.2   -0.1   -0.6
H     5.5    3.6   -1.1
H     5.1    3.7    1.9
H     5.8    5.0    0.8
