          14
 frame:         5955
C     1.3    0.1   -0.4
O     2.7    0.3   -0.4
C     3.1    1.6   -0.1
C     2.4    2.6    0.2
C     4.6    1.6   -0.1
N     5.3    2.6    0.2
O     6.7    2.4    0.2
H     1.1   -0.9   -0.7
H     0.8    0.8   -1.2
H     0.8    0.3    0.6
H     1.3    2.6    0.2
H     2.8    3.6    0.5
H     5.1    0.6   -0.3
H     7.0    3.3    0.4
