          17
 frame:         1330
C     2.0   -0.4    1.4
C     2.5    0.0    0.0
C     3.1    1.4    0.0
C     4.4    1.8   -0.1
C     4.5    3.3   -0.1
C     3.1    3.7    0.1
C     2.3    2.6    0.1
H     1.6   -1.4    1.4
H     1.2    0.3    1.7
H     2.8   -0.4    2.2
H     1.7   -0.1   -0.7
H     3.3   -0.7   -0.3
H     5.2    1.1   -0.2
H     4.9    3.7   -1.0
H     5.1    3.6    0.8
H     2.8    4.8    0.2
H     1.2    2.6    0.3
