          16
 frame:         1607
C     0.9   -1.5    0.6
N     1.4   -0.2    0.9
C     0.7    0.5   -0.2
C    -0.2    1.6    0.1
C    -1.5    0.8    0.5
C    -1.4   -0.5    0.2
C    -0.1   -0.8   -0.4
H     1.6   -2.2    0.0
H     0.5   -2.1    1.4
H     2.5   -0.1    0.9
H     1.4    0.7   -1.1
H     0.2    2.1    1.0
H    -0.4    2.3   -0.7
H    -2.4    1.3    0.9
H    -2.2   -1.2    0.3
H    -0.2   -1.3   -1.4
