          13
 frame:         6367
N     1.0    0.1    0.0
C     2.4   -0.1   -0.1
N     3.1   -1.2   -0.2
C     3.1    1.2   -0.0
C     3.7    2.3    0.0
C     4.4    3.6    0.1
O     3.5    4.6   -0.4
H     0.7    0.9    0.5
H     0.5   -0.8    0.3
H     2.5   -2.0   -0.2
H     5.3    3.5   -0.5
H     4.6    3.8    1.1
H     3.2    4.4   -1.3
