          18
 frame:         6084
N     1.0   -0.0    0.1
C     2.5   -0.0    0.0
C     2.9   -1.4   -0.5
C     2.6   -1.5   -2.0
C     3.1   -0.3   -2.8
O     2.6    0.9   -2.3
C     3.0    1.1   -0.9
H     0.7    0.9    0.3
H     0.7   -0.6    0.8
H     3.0    0.2    1.0
H     2.5   -2.2    0.1
H     4.0   -1.4   -0.4
H     3.0   -2.5   -2.4
H     1.5   -1.6   -2.1
H     4.2   -0.3   -2.7
H     2.8   -0.4   -3.8
H     4.1    1.2   -0.8
H     2.5    2.1   -0.6
