          15
 frame:         5451
C     1.1    0.1    0.5
C     2.2    0.1   -0.5
N     2.9   -0.9   -0.8
O     2.5   -2.1   -0.1
N     2.6    1.4   -1.1
C     3.1    1.4   -2.5
C     4.0    1.6   -1.3
H     0.7    1.1    0.6
H     1.4   -0.2    1.5
H     0.3   -0.6    0.1
H     3.1   -2.8   -0.5
H     2.7    2.2   -3.1
H     3.1    0.4   -2.9
H     4.7    0.9   -1.1
H     4.3    2.7   -1.1
