          16
 frame:         5583
C     1.2   -0.1    0.0
N     2.7   -0.1   -0.1
C     3.1   -0.7   -1.4
C     3.2    0.8   -1.1
C     4.5    1.5   -0.8
C     5.9    0.9   -1.0
O     5.3    2.0   -1.8
H     1.0    0.7    0.8
H     0.9   -1.0    0.5
H     0.7    0.1   -0.9
H     2.4   -1.0   -2.1
H     4.0   -1.3   -1.3
H     2.5    1.4   -1.7
H     4.4    2.2    0.1
H     6.0   -0.1   -1.5
H     6.7    1.2   -0.3
