          13
 frame:          172
C     1.1    0.2   -0.8
O     2.4    0.1   -0.1
C     3.1    1.3    0.0
C     2.4    2.6    0.0
C     4.4    1.2    0.2
H     0.7   -0.8   -0.8
H     1.3    0.5   -1.9
H     0.4    0.9   -0.3
H     1.6    2.6    0.8
H     1.9    2.8   -0.9
H     3.1    3.4    0.2
H     4.9    0.2    0.2
H     5.0    2.1    0.3
