          16
 frame:          108
C     1.0   -0.0    0.0
C     2.5   -0.0   -0.1
C     3.0   -0.8   -1.3
C     3.1    1.4   -0.0
N     4.5    1.5    0.0
H     0.6    0.5    0.9
H     0.6   -1.0    0.1
H     0.6    0.5   -0.9
H     2.9   -0.5    0.9
H     2.6   -0.4   -2.2
H     2.7   -1.9   -1.2
H     4.1   -0.7   -1.4
H     2.6    2.0    0.8
H     2.8    1.9   -1.0
H     4.8    1.1    1.0
H     4.9    2.4   -0.1
