          13
 frame:         4468
O     1.0   -0.0    0.0
C     2.4   -0.0    0.0
C     2.8   -0.8   -1.2
C     4.3   -1.1   -1.3
C     5.5   -1.3   -1.3
C     3.0    1.4    0.0
C     3.4    2.5    0.0
H     0.7    0.7    0.6
H     2.8   -0.5    0.9
H     2.5   -0.3   -2.1
H     2.3   -1.8   -1.2
H     6.5   -1.5   -1.3
H     3.7    3.5    0.1
