          19
 frame:         3563
C     1.1    0.1   -0.4
C     2.6    0.2   -0.7
C     3.4    0.3    0.6
C     4.9    0.5    0.2
O     5.2    1.7   -0.5
C     6.0   -0.0    1.2
C     5.8   -0.7   -0.1
H     0.5    0.0   -1.3
H     0.7    0.9    0.2
H     0.9   -0.8    0.2
H     2.7    1.1   -1.3
H     2.9   -0.7   -1.3
H     3.3   -0.6    1.1
H     3.1    1.1    1.2
H     5.1    2.4    0.2
H     5.6   -0.6    2.1
H     6.9    0.6    1.3
H     6.5   -0.5   -0.9
H     5.3   -1.7   -0.2
