          17
 frame:         4009
C     2.9   -0.1    0.7
C     4.2    0.2    0.0
O     4.3    1.6    0.0
C     5.5    2.1   -0.5
C     6.5    1.4   -1.1
C     5.5    3.6   -0.5
C     4.6    4.4    0.1
H     2.8   -1.2    0.7
H     2.0    0.3    0.1
H     2.9    0.2    1.7
H     4.2   -0.2   -1.0
H     5.1   -0.3    0.6
H     6.5    0.3   -1.1
H     7.4    2.0   -1.5
H     6.4    4.1   -0.9
H     3.7    4.0    0.5
H     4.7    5.5    0.1
