          18
 frame:         2180
C     1.0   -0.1   -0.0
C     2.5   -0.0   -0.0
C     3.0    1.3   -0.0
C     3.4    2.5    0.0
C     3.9    3.9    0.0
C     2.7    4.9    0.0
N     3.2    6.2    0.0
H     0.6   -1.2   -0.0
H     0.6    0.4   -0.9
H     0.6    0.4    0.9
H     2.9   -0.6   -0.9
H     2.9   -0.6    0.9
H     4.5    4.1   -0.9
H     4.5    4.0    0.9
H     2.1    4.7    0.9
H     2.1    4.7   -0.9
H     3.7    6.5    0.9
H     2.5    6.9   -0.1
