          13
 frame:         5203
C     1.0   -0.3    0.1
C     2.5    0.1   -0.0
C     2.6    1.6   -0.0
N     2.7    2.4   -1.0
O     2.6    1.7   -2.2
C     2.7    2.2    1.3
N     2.7    2.7    2.4
H     0.9   -1.4    0.1
H     0.4    0.0   -0.8
H     0.6    0.0    1.0
H     2.9   -0.3   -1.0
H     3.0   -0.3    0.8
H     2.7    2.4   -2.9
