          15
 frame:         3924
C     1.1   -0.0   -0.1
C     2.6    0.0    0.0
C     3.3   -1.4   -0.0
O     4.2   -1.6    1.1
C     3.2    1.2    0.1
C     4.7    1.4    0.1
O     5.6    0.6    0.2
H     0.6    1.0   -0.2
H     0.7   -0.5    0.8
H     0.8   -0.6   -1.0
H     3.8   -1.4   -1.0
H     2.5   -2.1    0.1
H     4.9   -0.9    0.9
H     2.6    2.1    0.1
H     5.0    2.5    0.1
