          18
 frame:         5116
C     1.3   -1.3   -1.5
C     2.5   -1.0   -0.6
C     3.0    0.5   -0.7
C     4.1    0.8    0.2
O     4.5    2.1    0.1
N     5.5    2.5    0.9
C     5.9    3.7    0.8
H     1.0   -2.3   -1.4
H     1.6   -1.1   -2.6
H     0.4   -0.7   -1.3
H     3.3   -1.7   -0.8
H     2.2   -1.2    0.5
H     2.1    1.1   -0.4
H     3.2    0.7   -1.7
H     5.0    0.1   -0.0
H     3.9    0.6    1.3
H     6.7    4.0    1.4
H     5.4    4.4    0.1
