          17
 frame:         4242
C     1.3    2.7   -1.1
O     2.0    2.4    0.0
C     3.0    1.4   -0.2
O     4.1    1.9   -1.0
C     4.9    2.9   -0.3
C     6.0    2.4    0.6
C     6.3    3.0   -0.7
H     0.5    3.4   -0.8
H     0.8    1.8   -1.6
H     1.9    3.2   -1.9
H     2.6    0.6   -0.8
H     3.4    1.1    0.8
H     4.4    3.8    0.0
H     6.1    1.3    0.7
H     6.2    2.9    1.5
H     6.8    4.0   -0.8
H     6.6    2.3   -1.5
