          16
 frame:         4694
C     0.8   -0.4   -0.0
C     2.2   -0.5   -0.3
C     2.8   -0.2   -1.7
N     3.0    0.7   -0.6
C     4.3    0.7    0.0
C     5.2    1.8   -0.6
O     6.4    1.9   -0.6
H     0.6   -0.1    1.1
H     0.2   -1.3   -0.2
H     0.3    0.4   -0.6
H     2.7   -1.3    0.2
H     2.1    0.2   -2.5
H     3.6   -0.8   -2.0
H     4.9   -0.2   -0.1
H     4.3    1.0    1.1
H     4.6    2.7   -1.1
