          16
 frame:         5769
C     1.4    0.2    0.8
N     2.8    0.3    0.9
C     3.4    1.1   -0.1
C     5.0    1.0   -0.0
O     5.4   -0.3   -0.3
C     5.6    2.0   -1.0
O     6.4    1.6   -1.8
H     1.0   -0.5    1.6
H     1.0   -0.0   -0.2
H     1.0    1.2    1.1
H     3.2   -0.7    0.8
H     3.1    2.2    0.1
H     3.1    0.9   -1.1
H     5.3    1.3    1.0
H     6.0   -0.2   -1.1
H     5.3    3.1   -0.9
