          17
 frame:         3251
C     0.8    0.2    0.5
C     2.2    0.2   -0.1
C     3.3    1.0    0.7
C     3.9   -0.3    1.1
O     2.9   -1.1    0.4
C     2.3    0.3   -1.6
C     2.8   -0.6   -2.4
H     0.8    0.1    1.6
H     0.2   -0.6    0.1
H     0.3    1.2    0.2
H     2.9    1.6    1.5
H     3.9    1.7    0.1
H     4.9   -0.5    0.7
H     3.9   -0.5    2.2
H     1.8    1.2   -1.9
H     3.3   -1.5   -2.0
H     2.8   -0.4   -3.5
