          15
 frame:         2863
N     0.8   -0.0   -0.0
C     2.1    0.0    0.0
C     2.9   -1.3    0.1
C     4.4   -1.2    0.0
C     5.0   -0.1   -0.0
C     4.4    1.3   -0.0
N     2.9    1.2    0.1
H     0.4    0.9   -0.0
H     2.5   -1.9   -0.8
H     2.5   -1.8    0.9
H     4.9   -2.2    0.0
H     6.1   -0.1   -0.0
H     4.7    1.9    0.8
H     4.7    1.8   -1.0
H     2.4    2.0    0.0
