          15
 frame:         3832
C     1.9   -0.7    0.3
C     3.3   -0.6    0.6
C     4.0    0.6   -0.2
C     5.4    0.8    0.1
O     6.1    0.1    0.8
C     6.1    1.9   -0.7
O     5.5    2.7   -1.5
H     1.4   -1.6    0.9
H     1.7   -0.9   -0.7
H     1.3    0.2    0.6
H     3.9   -1.5    0.4
H     3.5   -0.4    1.7
H     3.5    1.6    0.0
H     3.8    0.5   -1.3
H     7.2    2.0   -0.5
