          19
 frame:         4014
C     0.8    1.5   -0.3
C     2.2    1.6    0.3
O     3.2    1.2   -0.7
C     4.5    1.3   -0.2
C     5.4    0.5   -1.1
C     5.0    2.8   -0.1
C     5.4    3.4    1.1
H     0.1    1.8    0.4
H     0.7    0.4   -0.6
H     0.8    2.1   -1.2
H     2.3    1.0    1.2
H     2.4    2.7    0.6
H     4.6    0.8    0.8
H     5.3    1.0   -2.1
H     5.1   -0.5   -1.2
H     6.5    0.5   -0.8
H     4.9    3.3   -1.0
H     5.5    2.8    2.0
H     5.7    4.4    1.1
