          17
 frame:         3674
C     1.5    0.6   -1.5
C     1.8    1.1   -0.1
C     2.9    2.2   -0.1
C     2.5    3.6   -0.5
O     1.4    3.9   -0.8
C     4.2    1.9    0.2
C     5.4    2.8    0.2
H     0.7   -0.1   -1.5
H     2.3    0.2   -2.0
H     1.1    1.5   -2.2
H     2.1    0.3    0.5
H     0.9    1.6    0.3
H     3.3    4.3   -0.6
H     4.4    0.9    0.5
H     5.2    3.8   -0.1
H     6.2    2.4   -0.4
H     5.8    2.8    1.2
