          18
 frame:         1699
C     1.0   -0.0    0.0
C     2.5   -0.1    0.1
C     3.1    1.2    0.7
C     4.5    0.7    1.2
C     5.5    1.4    1.6
C     4.4   -0.8    1.1
N     3.0   -1.1    0.9
H     0.6   -0.9   -0.4
H     0.6    0.8   -0.6
H     0.6    0.1    1.0
H     2.9   -0.1   -1.0
H     2.5    1.5    1.6
H     3.2    2.0    0.1
H     6.5    0.9    1.9
H     5.5    2.5    1.6
H     5.1   -1.2    0.3
H     4.8   -1.3    2.1
H     2.9   -2.0    0.5
