          14
 frame:         6890
O     2.1   -0.2   -1.7
N     1.9    0.8   -0.7
C     0.7    0.8   -0.1
O    -0.2   -0.0   -0.5
C     3.1    1.4   -0.2
C     3.9    2.4   -1.1
C     3.1    2.9    0.1
H     1.2   -0.6   -1.7
H     0.6    1.5    0.7
H     3.7    0.7    0.4
H     3.5    2.6   -2.1
H     5.0    2.3   -1.0
H     3.7    3.2    1.0
H     2.2    3.4   -0.1
