          13
 frame:         5889
C     3.1   -1.1    0.5
O     2.3    0.1    0.3
C     3.0    1.2    0.2
C     2.5    2.5   -0.1
N     3.6    3.3   -0.1
C     4.7    2.6    0.1
N     4.4    1.3    0.3
H     2.4   -1.9    0.6
H     3.6   -1.0    1.5
H     3.8   -1.3   -0.3
H     1.5    2.8   -0.2
H     3.6    4.3   -0.2
H     5.7    3.0    0.2
