          20
 frame:         5486
C     0.8   -0.1   -0.0
C     2.4    0.0   -0.0
O     2.9   -0.7   -1.2
C     2.9    1.5   -0.0
C     2.4    2.3   -1.2
C     2.6    2.2    1.3
N     4.4    1.3   -0.2
H     0.4    0.4    0.8
H     0.6   -1.1   -0.0
H     0.4    0.4   -0.9
H     2.7   -0.4    0.9
H     3.8   -0.3   -1.2
H     2.6    1.8   -2.2
H     3.0    3.3   -1.3
H     1.4    2.5   -1.2
H     3.0    1.6    2.1
H     1.5    2.4    1.4
H     3.1    3.2    1.3
H     4.8    1.0    0.7
H     4.8    2.2   -0.5
