          14
 frame:         4807
C     0.9   -0.0   -0.4
C     2.3    0.5    0.0
N     3.5   -0.3   -0.1
C     3.3    0.8   -1.0
C     4.3    2.0   -0.8
O     5.1    1.8    0.3
O     4.3    3.0   -1.4
H     0.2    0.8   -0.6
H     0.5   -0.7    0.4
H     1.0   -0.6   -1.3
H     2.2    1.2    0.9
H     3.3   -1.2   -0.5
H     3.1    0.7   -2.0
H     4.9    0.9    0.6
