          16
 frame:         1524
C    -1.3    1.0    0.5
C    -1.4   -0.4   -0.1
C    -0.4   -1.5    0.2
C     0.9   -0.9   -0.4
C     1.6    0.3    0.2
N     0.7    0.4   -1.0
C    -0.7    0.7   -0.8
H    -2.2    1.6    0.6
H    -0.7    1.1    1.4
H    -2.4   -0.7   -0.5
H    -0.3   -1.7    1.3
H    -0.7   -2.4   -0.3
H     1.6   -1.6   -0.9
H     1.2    0.7    1.1
H     2.6    0.5   -0.0
H    -1.1    1.2   -1.7
