          18
 frame:         4692
C     0.9   -0.0   -0.1
C     2.4   -0.2   -0.1
C     3.1   -0.6   -1.3
N     3.2    0.8   -0.8
C     4.5    1.2   -0.2
C     5.3    1.9   -1.3
O     4.6    3.0   -1.9
H     0.6    0.7    0.7
H     0.4   -1.0    0.2
H     0.5    0.3   -1.0
H     2.9   -0.5    0.8
H     2.6   -0.7   -2.3
H     4.0   -1.2   -1.2
H     5.0    0.4    0.2
H     4.2    1.9    0.6
H     5.6    1.2   -2.1
H     6.2    2.4   -0.8
H     3.7    2.7   -2.0
