          14
 frame:         6842
O     0.9    2.0    0.0
N     2.2    2.0   -0.5
C     3.0    1.2    0.2
C     4.4    1.0   -0.1
C     5.1    2.0   -1.1
C     6.0    2.3    0.2
O     5.3    1.3    1.0
H     0.5    2.6   -0.6
H     2.6    0.6    1.1
H     4.6   -0.1   -0.5
H     4.4    2.9   -1.4
H     5.6    1.6   -1.9
H     7.1    2.1    0.0
H     5.9    3.4    0.6
