          13
 frame:         6372
N     1.1   -0.2    0.3
C     2.5   -0.3    0.1
N     3.2   -1.4   -0.2
C     3.2    1.0    0.2
O     2.5    2.0    0.6
C     4.6    1.1   -0.1
C     5.3    2.2    0.1
H     0.8    0.7    0.6
H     0.5   -1.0    0.4
H     2.6   -2.2   -0.2
H     5.1    0.1   -0.3
H     4.8    3.1    0.3
H     6.4    2.2   -0.1
