          12
 frame:         3034
N     0.9    0.0    0.3
C     2.2   -0.0    0.3
N     2.9    1.1    0.1
C     4.3    1.2    0.1
C     5.0    2.3   -0.0
C     6.4    2.3    0.0
N     7.6    2.4    0.0
H     0.5   -0.9    0.4
H     2.8   -0.9    0.4
H     2.4    2.0    0.0
H     4.8    0.2    0.3
H     4.5    3.3   -0.1
