          17
 frame:         3185
C     0.9   -0.0    0.1
C     2.4    0.0    0.1
C     3.2    1.1    0.9
C     4.2    0.0    1.3
C     3.2   -1.1    0.9
C     3.7   -2.3    0.1
O     4.9   -2.5   -0.2
H     0.5   -0.9   -0.5
H     0.5    0.9   -0.4
H     0.5   -0.0    1.1
H     2.8    0.0   -1.0
H     2.6    1.4    1.7
H     3.6    2.0    0.3
H     5.1   -0.0    0.7
H     4.6    0.0    2.4
H     2.6   -1.4    1.7
H     2.9   -3.0   -0.2
