          22
 frame:         2357
C     0.7    1.1   -1.2
C     2.0    1.0   -0.5
C     2.8    2.3   -0.6
N     4.1    2.2    0.2
C     4.9    3.4    0.1
C     6.2    3.3    0.9
C     7.1    4.5    0.8
H     0.1    0.1   -1.1
H     0.8    1.3   -2.3
H     0.1    1.9   -0.8
H     2.6    0.1   -0.8
H     1.8    0.8    0.6
H     2.2    3.1   -0.2
H     3.0    2.5   -1.6
H     4.6    1.4   -0.1
H     4.3    4.3    0.5
H     5.1    3.6   -1.0
H     6.8    2.4    0.5
H     6.0    3.1    1.9
H     7.3    4.8   -0.3
H     8.0    4.4    1.4
H     6.5    5.4    1.2
