          21
 frame:         1204
C     2.1   -0.3   -1.5
C     2.4    0.1   -0.1
C     3.1    1.4    0.0
C     2.3    2.6   -0.4
C     3.0    3.8    0.1
C     3.7    3.3    1.5
C     3.5    1.8    1.5
H     1.6   -1.4   -1.6
H     3.0   -0.4   -2.1
H     1.4    0.4   -2.0
H     3.1   -0.7    0.4
H     1.5    0.1    0.5
H     4.0    1.4   -0.6
H     1.3    2.6    0.0
H     2.2    2.7   -1.5
H     3.8    4.2   -0.6
H     2.4    4.7    0.3
H     4.7    3.6    1.5
H     3.2    3.8    2.4
H     4.4    1.3    1.9
H     2.6    1.5    2.1
