          13
 frame:         3360
C     0.9   -0.1    0.3
C     2.2   -0.0   -0.1
C     3.1    1.2   -0.2
O     4.3    1.1    0.5
C     4.9   -0.1    0.2
C     4.3   -1.1   -0.2
O     2.9   -1.2   -0.4
H     0.4    0.8    0.5
H     0.4   -1.0    0.3
H     2.5    2.1    0.2
H     3.3    1.4   -1.3
H     6.0   -0.0    0.5
H     4.8   -2.1   -0.5
