          13
 frame:         4600
C     1.7   -0.5    0.2
O     0.8   -1.6    0.1
C    -0.2   -0.9   -0.6
C    -1.4   -0.6    0.2
N    -1.4    0.6    0.8
N    -0.1    1.2    0.6
C     0.6    0.4   -0.4
H     2.6   -0.6   -0.5
H     2.0   -0.2    1.2
H    -0.4   -1.3   -1.6
H    -2.3   -1.2    0.3
H    -0.2    2.2    0.4
H     0.9    1.0   -1.3
