          17
 frame:         2616
C     1.0   -0.1    0.0
N     2.4    0.1   -0.2
C     3.0    1.3    0.3
C     4.5    1.3   -0.2
C     5.2   -0.0    0.1
N     4.4   -1.2   -0.3
C     3.2   -1.1   -0.3
H     0.5    0.8   -0.5
H     0.7    0.0    1.1
H     0.6   -1.0   -0.4
H     2.5    2.1   -0.1
H     3.0    1.4    1.4
H     5.0    2.2    0.2
H     4.5    1.4   -1.4
H     5.4   -0.0    1.2
H     6.2   -0.1   -0.4
H     2.6   -2.0   -0.6
