          21
 frame:         1491
C     2.9   -0.9   -1.0
C     2.6   -0.2    0.3
C     3.1    1.3    0.3
C     2.6    2.1    1.5
C     2.9    3.5    1.5
C     4.6    1.3    0.3
C     5.4    1.8   -0.6
H     2.5   -2.0   -0.9
H     4.0   -1.0   -1.1
H     2.5   -0.5   -1.9
H     3.0   -0.7    1.2
H     1.5   -0.1    0.4
H     2.8    1.8   -0.6
H     3.0    1.6    2.5
H     1.5    1.9    1.6
H     4.0    3.7    1.6
H     2.5    4.0    2.4
H     2.5    4.0    0.7
H     5.1    0.8    1.2
H     5.0    2.3   -1.5
H     6.5    1.8   -0.6
