          13
 frame:         6837
O     1.0    0.1   -0.4
N     2.4   -0.0    0.1
C     3.0    1.1    0.1
N     4.3    1.3    0.5
C     4.5    2.8    0.7
C     3.3    3.4    0.1
C     2.4    2.5   -0.3
H     0.8   -0.9   -0.3
H     4.7    0.7    1.1
H     5.5    3.0    0.1
H     4.7    3.0    1.7
H     3.2    4.5   -0.1
H     1.4    2.6   -0.7
