          17
 frame:         3849
C     0.9    0.1    0.0
C     2.4   -0.0    0.0
C     3.1    1.3   -0.0
O     2.5    2.4   -0.0
C     4.6    1.3   -0.0
C     5.4    2.4   -0.8
C     5.4    2.4    0.7
H     0.5   -0.9    0.1
H     0.6    0.6   -0.9
H     0.6    0.7    0.9
H     2.8   -0.6   -0.9
H     2.8   -0.6    0.9
H     5.1    0.3   -0.0
H     4.7    3.1   -1.3
H     6.3    2.1   -1.3
H     6.3    2.1    1.2
H     4.8    3.1    1.2
