          18
 frame:         5468
C     3.6   -0.5   -1.8
C     3.0   -0.3   -0.4
O     3.4   -1.4    0.5
C     3.2    1.1    0.2
C     4.7    1.4    0.3
C     5.3    1.9    1.6
N     5.5    0.5    1.2
H     3.1    0.3   -2.5
H     3.3   -1.4   -2.2
H     4.7   -0.3   -1.8
H     1.9   -0.4   -0.5
H     4.2   -1.0    0.9
H     2.8    1.1    1.2
H     2.7    1.9   -0.4
H     5.2    1.8   -0.6
H     4.7    1.9    2.5
H     6.2    2.5    1.6
H     6.5    0.4    0.8
