          13
 frame:          415
C     1.0    0.0    0.0
C     2.4   -0.0    0.0
C     3.6   -0.0   -0.0
C     5.1   -0.1    0.0
C     5.9   -0.7   -1.1
N     5.8    0.8   -1.0
H     0.6    1.0   -0.3
H     0.6   -0.2    1.0
H     0.6   -0.7   -0.7
H     5.5   -0.1    1.0
H     5.3   -1.1   -1.9
H     6.8   -1.2   -0.8
H     6.7    1.1   -0.6
