          14
 frame:         6098
N     0.9   -0.2   -0.2
C     2.4   -0.0    0.0
C     3.1   -1.2   -0.5
C     3.9   -0.9   -1.5
O     3.8    0.5   -1.8
C     3.0    1.1   -0.9
C     2.8    2.4   -0.8
H     0.5    0.7    0.0
H     0.6   -0.8    0.5
H     2.6    0.2    1.1
H     3.0   -2.2   -0.1
H     4.5   -1.4   -2.2
H     3.2    3.0   -1.6
H     2.1    2.8   -0.1
