          19
 frame:         1420
C     1.0    0.2    0.2
C     2.4   -0.2   -0.1
C     2.5   -1.6   -0.7
C     3.4    0.7    0.2
C     4.8    0.6    0.0
C     5.6   -0.6   -0.5
C     5.5    1.7    0.4
H     0.9    1.2    0.6
H     0.5   -0.5    0.9
H     0.4    0.1   -0.7
H     2.1   -2.3    0.0
H     3.6   -1.9   -0.8
H     1.9   -1.7   -1.6
H     3.0    1.6    0.6
H     5.2   -0.8   -1.5
H     5.4   -1.4    0.1
H     6.7   -0.3   -0.6
H     5.0    2.6    0.8
H     6.6    1.8    0.3
