          16
 frame:         1534
C    -1.7    1.0    0.3
C    -1.3   -0.3   -0.3
N    -0.4   -1.3    0.3
C     0.9   -0.8   -0.2
C     2.1   -0.0    0.1
C     0.8    0.7    0.1
C    -0.6    1.0   -0.7
H    -2.6    1.4    0.1
H    -1.4    1.1    1.4
H    -2.0   -0.8   -1.0
H    -0.5   -1.2    1.3
H     0.8   -0.9   -1.3
H     2.6    0.1    1.0
H     2.8   -0.0   -0.8
H     0.6    0.9    1.1
H    -0.7    1.5   -1.6
