          17
 frame:          355
C     1.0   -0.0    0.0
C     2.5   -0.1    0.1
C     3.1    1.2    0.8
C     4.4    0.7    1.4
C     4.4   -0.8    1.1
N     3.0   -1.1    1.0
H     0.6   -1.0   -0.5
H     0.7    0.8   -0.6
H     0.6    0.1    1.0
H     2.9   -0.1   -0.9
H     2.5    1.6    1.5
H     3.3    2.0    0.0
H     5.3    1.2    1.0
H     4.4    0.9    2.5
H     5.0   -1.1    0.2
H     4.9   -1.4    2.0
H     2.9   -2.0    0.5
