          20
 frame:         1717
C     1.1   -0.0    0.5
C     2.4   -0.0   -0.2
C     2.2    0.1   -1.8
C     3.4    1.1    0.4
C     4.0   -0.1    1.2
N     5.5    0.1    1.5
C     3.4   -1.1    0.3
H     1.2   -0.1    1.6
H     0.5   -0.9    0.2
H     0.5    0.9    0.2
H     3.2    0.1   -2.3
H     1.7    0.9   -2.0
H     1.7   -0.8   -2.1
H     3.0    1.9    0.9
H     4.1    1.4   -0.4
H     3.6   -0.1    2.2
H     6.0   -0.0    0.6
H     5.8   -0.7    2.0
H     4.1   -1.4   -0.5
H     3.0   -2.0    0.7
