          16
 frame:         6724
O     0.8    0.2    0.2
C     2.2   -0.0    0.1
C     2.9    1.3    0.1
C     4.4    1.3    0.0
C     4.9    0.7   -1.2
N     5.7   -0.4   -1.2
O     6.1   -0.8   -2.5
H     0.4   -0.7    0.1
H     2.5   -0.6   -0.8
H     2.6   -0.6    1.0
H     2.6    1.9    1.0
H     2.5    1.9   -0.8
H     4.8    0.7    0.9
H     4.8    2.3    0.1
H     4.7    1.1   -2.2
H     6.7   -1.6   -2.3
