          18
 frame:         2344
C     1.1    0.4    0.2
C     2.4    0.5    0.0
C     3.3    1.6    0.7
N     4.1    2.3   -0.3
C     5.0    3.3    0.2
C     6.4    2.8    0.6
C     6.1    3.7   -0.6
H     0.5   -0.3   -0.3
H     0.6    1.1    0.9
H     2.9   -0.2   -0.6
H     4.0    1.0    1.3
H     2.7    2.2    1.4
H     3.4    2.8   -1.0
H     4.5    4.0    0.9
H     6.6    1.7    0.3
H     6.8    3.2    1.5
H     6.5    4.7   -0.5
H     6.2    3.3   -1.6
