          15
 frame:         2321
C     0.9   -0.2    0.0
C     2.4   -0.4    0.0
C     3.0   -1.6    0.2
C     3.3    0.8   -0.2
N     2.8    1.9   -0.3
N     3.9    2.9   -0.5
C     3.4    4.1   -0.7
H     0.6    0.5    0.8
H     0.4   -1.1    0.2
H     0.6    0.3   -0.9
H     2.4   -2.5    0.3
H     4.1   -1.7    0.2
H     4.4    0.6   -0.2
H     4.1    4.9   -0.8
H     2.3    4.3   -0.7
