          15
 frame:         1634
C     1.2    0.1    0.6
C     2.6   -0.1   -0.0
C     3.4    1.0   -0.7
N     3.8    0.4    0.7
C     4.7   -0.7    0.5
N     4.3   -1.7   -0.1
C     2.9   -1.6   -0.4
H     1.1    1.2    0.9
H     1.0   -0.5    1.4
H     0.4    0.0   -0.2
H     3.0    2.0   -0.6
H     4.0    0.7   -1.5
H     5.7   -0.5    0.8
H     2.8   -1.8   -1.5
H     2.3   -2.3    0.1
