          15
 frame:         5627
C     1.1   -0.0    0.1
N     2.6   -0.0   -0.1
N     3.3    1.2   -0.2
C     4.5    0.8   -0.9
C     4.7   -0.7   -0.6
C     3.3   -1.2   -0.3
O     2.9   -2.3   -0.3
H     0.8   -1.0    0.1
H     0.7    0.6   -0.6
H     0.9    0.4    1.1
H     3.6    1.4    0.8
H     4.3    0.9   -2.0
H     5.3    1.5   -0.6
H     5.2   -1.3   -1.4
H     5.3   -0.8    0.3
