          16
 frame:         7063
C     0.6    0.1    0.3
C     2.0   -0.3   -0.0
S     3.1    1.1   -0.1
O     2.8    1.9   -1.3
O     3.1    1.7    1.2
N     4.6    0.3   -0.4
C     5.5    0.0    0.7
H    -0.1   -0.8    0.3
H     0.2    0.8   -0.5
H     0.5    0.6    1.3
H     2.1   -0.8   -1.0
H     2.4   -1.0    0.7
H     5.0    0.8   -1.1
H     5.0   -0.7    1.4
H     5.7    0.9    1.3
H     6.4   -0.4    0.3
