          12
 frame:          665
C     0.3    1.3    0.0
O     1.2    0.4   -0.6
C     1.0   -1.0   -0.1
C    -0.4   -1.3    0.1
C    -1.3   -0.3   -0.1
O    -1.0    1.0   -0.3
H     0.6    2.3   -0.4
H     0.5    1.2    1.1
H     1.6   -1.1    0.9
H     1.5   -1.6   -0.8
H    -0.7   -2.3    0.3
H    -2.4   -0.5   -0.1
