          14
 frame:         2191
C     0.9    0.0    0.0
C     2.5   -0.0    0.0
C     3.1    1.4    0.0
C     4.5    1.4   -0.0
C     5.7    1.4   -0.0
C     7.1    1.4   -0.0
N     8.3    1.4   -0.0
H     0.5   -1.0    0.0
H     0.5    0.5   -0.9
H     0.5    0.5    0.9
H     2.8   -0.6   -0.9
H     2.8   -0.5    0.9
H     2.7    2.0    0.9
H     2.7    2.0   -0.9
