          12
 frame:          320
C     0.4    1.4    0.5
C     0.9    0.4   -0.4
N     0.9   -1.0    0.1
C    -0.4   -1.3    0.3
N    -1.3   -0.4    0.1
C    -0.6    0.7   -0.4
H     0.7    2.5    0.3
H     0.3    1.2    1.6
H     1.7    0.6   -1.2
H     1.6   -1.7   -0.2
H    -0.7   -2.3    0.8
H    -1.1    1.3   -1.2
