          15
 frame:         3568
C     2.5   -1.2    0.8
C     2.1   -0.0    0.3
C     3.0    1.1    0.1
C     2.6    2.2   -0.5
C     4.5    0.9    0.4
C     5.5    0.7   -0.6
O     5.4    1.9    0.0
H     1.7   -2.0    1.0
H     3.5   -1.5    1.0
H     1.1    0.2    0.1
H     1.5    2.4   -0.7
H     3.3    3.1   -0.7
H     4.7    0.5    1.4
H     5.2    0.6   -1.6
H     6.4    0.1   -0.3
