          15
 frame:         4369
O     1.0    0.1    0.6
C     2.3   -0.0    0.1
C     3.2    1.1    0.6
O     4.4    0.5    1.2
C     4.0   -0.8    1.6
C     3.0   -1.3    0.6
C     2.8   -2.5    0.2
H     0.4   -0.6    0.4
H     2.2   -0.0   -1.0
H     2.6    1.6    1.4
H     3.5    1.8   -0.1
H     4.8   -1.4    1.8
H     3.5   -0.7    2.6
H     2.1   -2.8   -0.6
H     3.3   -3.4    0.6
