          14
 frame:          642
N     0.7    1.1   -0.4
N     2.0    0.6   -0.4
C     3.0    1.5   -0.5
C     4.4    1.1   -0.4
C     5.5    1.7   -1.2
C     5.4    2.1    0.2
H     0.1    0.3   -0.7
H     0.6    1.9   -1.0
H     2.8    2.5   -0.8
H     4.5    0.0   -0.1
H     5.1    2.5   -1.9
H     6.3    1.1   -1.6
H     6.2    1.7    0.9
H     5.0    3.0    0.5
