          14
 frame:         6107
N     1.0    0.1    0.0
C     2.4   -0.0   -0.0
C     3.2   -1.1   -0.1
C     4.6   -0.8   -0.2
O     5.6   -1.5   -0.3
C     4.7    0.8   -0.2
C     3.2    1.3   -0.1
H     0.5   -0.8    0.2
H     0.6    0.9    0.3
H     2.8   -2.2   -0.1
H     5.1    1.1   -1.1
H     5.3    1.1    0.6
H     2.9    1.9   -0.9
H     3.0    1.9    0.8
