          15
 frame:         4721
C     1.0    0.0    0.3
C     2.4    0.1   -0.1
C     2.9   -1.3   -0.7
N     4.2   -1.2   -1.5
C     4.5   -0.0   -1.8
N     3.9    1.2   -1.5
O     2.5    1.1   -1.2
H     0.7    1.0    0.7
H     0.8   -0.7    1.1
H     0.3   -0.2   -0.5
H     3.1    0.3    0.7
H     2.1   -1.7   -1.4
H     3.0   -2.0    0.1
H     5.5    0.1   -2.3
H     4.0    1.9   -2.2
