          14
 frame:          877
C     2.5   -0.9    0.6
O     3.9   -0.5    0.6
C     4.0    0.8   -0.0
C     5.5    1.2    0.0
C     5.9    1.6    1.4
O     6.7    2.5    1.7
H     2.5   -1.9    1.1
H     2.1   -1.1   -0.4
H     1.9   -0.2    1.2
H     3.4    1.5    0.5
H     3.7    0.7   -1.1
H     5.7    2.1   -0.6
H     6.1    0.4   -0.3
H     5.5    0.9    2.2
