          12
 frame:         5473
C     3.3   -1.3    0.4
C     2.5   -0.1    0.2
O     1.3   -0.0    0.2
C     3.2    1.2    0.0
C     4.6    1.4    0.0
C     5.3    2.6   -0.2
N     5.8    3.6   -0.3
H     3.9   -1.3    1.3
H     4.0   -1.5   -0.5
H     2.6   -2.2    0.5
H     2.6    2.1   -0.1
H     5.2    0.5    0.1
