          15
 frame:          326
C     0.7    1.3   -0.6
C    -0.5    1.0    0.3
C    -1.5    0.0   -0.2
C    -0.8   -1.4    0.0
C     0.7   -1.1   -0.0
N     0.9    0.3    0.5
H     0.7    1.0   -1.6
H     1.3    2.3   -0.4
H    -0.8    1.7    1.1
H    -2.5    0.1    0.3
H    -1.7    0.2   -1.3
H    -1.1   -1.7    1.0
H    -1.1   -2.1   -0.7
H     1.2   -1.8    0.6
H     1.1   -1.2   -1.0
