          16
 frame:         2843
N     1.1   -0.2    0.1
C     2.5    0.2   -0.1
C     2.8    1.4    0.7
C     3.8    1.2    1.6
C     4.3   -0.2    1.5
C     3.3   -1.2    2.0
C     3.4   -0.9    0.5
H     0.9   -1.1   -0.5
H     0.4    0.5   -0.3
H     2.7    0.3   -1.1
H     2.2    2.3    0.6
H     4.2    2.0    2.2
H     5.4   -0.4    1.6
H     3.7   -2.2    2.3
H     2.4   -0.9    2.5
H     3.9   -1.6   -0.2
