          21
 frame:         3702
C     0.2    1.7    0.8
C     1.6    1.0    0.8
C     2.7    1.9    0.5
C     4.1    1.3    0.5
C     5.2    2.2    0.1
O     6.5    1.5    0.1
C     7.6    2.3   -0.2
H    -0.6    1.0    1.1
H    -0.0    2.1   -0.2
H     0.2    2.5    1.6
H     1.6    0.2    0.1
H     1.8    0.6    1.8
H     2.7    2.8    1.2
H     2.5    2.4   -0.5
H     4.1    0.4   -0.2
H     4.3    0.8    1.5
H     5.3    3.0    0.8
H     5.1    2.6   -0.9
H     8.5    1.7   -0.2
H     7.7    3.1    0.5
H     7.5    2.7   -1.2
