          15
 frame:         2864
N     0.9   -0.1    0.4
C     2.1   -0.0    0.1
C     2.9    1.2   -0.3
C     4.4    1.2    0.2
C     5.0   -0.1   -0.1
C     4.3   -1.2   -0.1
N     2.9   -1.2    0.0
H     0.5    0.8    0.4
H     2.4    2.1    0.0
H     2.9    1.2   -1.4
H     4.4    1.5    1.2
H     4.9    2.1   -0.3
H     6.1   -0.1   -0.2
H     4.7   -2.2   -0.3
H     2.4   -2.0    0.2
