          14
 frame:          876
C     3.5   -1.1    1.2
O     3.3   -0.4   -0.0
C     3.5    1.0    0.1
C     4.9    1.5    0.0
C     5.9    0.6   -0.7
O     5.2    2.6    0.5
H     3.3   -2.1    1.0
H     2.7   -0.7    1.9
H     4.5   -0.9    1.6
H     3.0    1.4    1.0
H     3.0    1.4   -0.8
H     6.1   -0.3   -0.1
H     6.9    1.1   -0.7
H     5.6    0.3   -1.6
