          16
 frame:         4812
C     1.0    0.1    0.4
C     2.4   -0.2   -0.1
N     3.4    0.8    0.3
C     4.0   -0.1    1.4
C     3.2   -1.2    0.8
C     4.0   -2.2   -0.1
O     5.2   -2.4    0.0
H     0.3   -0.7    0.1
H     0.6    1.0   -0.1
H     0.9    0.2    1.5
H     2.4   -0.3   -1.2
H     3.0    1.7    0.7
H     5.1   -0.2    1.4
H     3.6    0.2    2.4
H     2.5   -1.8    1.4
H     3.4   -2.8   -0.8
