          12
 frame:          487
C     0.9    0.1   -0.0
C     2.5   -0.0   -0.0
C     3.1   -1.2   -0.0
N     2.5   -2.4   -0.1
C     3.2    1.2   -0.0
N     3.8    2.2    0.0
H     0.6    1.1    0.1
H     0.5   -0.5    0.8
H     0.5   -0.3   -1.0
H     4.2   -1.2   -0.0
H     1.5   -2.5    0.1
H     3.1   -3.2    0.1
