          20
 frame:         5498
C     1.7    1.5   -0.9
C     3.1    1.1   -0.5
O     3.8    2.3   -0.1
C     5.1    2.0    0.3
C     5.8    3.4    0.6
C     7.3    3.1    1.0
N     5.8    4.3   -0.6
H     1.1    0.6   -1.2
H     1.7    2.2   -1.8
H     1.1    2.0   -0.1
H     3.6    0.6   -1.3
H     3.0    0.5    0.4
H     5.7    1.5   -0.6
H     5.1    1.4    1.2
H     5.3    3.9    1.4
H     7.8    2.6    0.2
H     7.3    2.5    1.9
H     7.8    4.1    1.3
H     4.9    4.4   -0.9
H     6.4    3.9   -1.3
