          18
 frame:         1619
C     1.4   -0.2   -0.4
C     2.8    0.1    0.1
C     3.7   -1.0    0.7
C     4.1   -0.5   -0.7
C     5.1    0.7   -0.7
C     4.3    1.9   -0.3
N     3.1    1.4    0.5
H     1.1    0.5   -1.2
H     0.7   -0.1    0.4
H     1.3   -1.2   -0.8
H     3.3   -2.0    0.7
H     4.3   -0.8    1.5
H     4.0   -1.1   -1.6
H     5.9    0.5    0.0
H     5.6    0.8   -1.7
H     4.8    2.7    0.3
H     3.9    2.4   -1.2
H     3.3    1.4    1.5
