          17
 frame:         1344
C     2.6   -1.3    0.3
C     2.2   -0.1   -0.1
C     2.9    1.1   -0.2
C     2.3    2.2   -0.6
C     4.3    1.1    0.3
C     5.4    0.7   -0.7
C     5.3    2.1   -0.2
H     2.0   -2.2    0.3
H     3.7   -1.4    0.6
H     1.1   -0.1   -0.4
H     1.3    2.2   -1.0
H     2.8    3.2   -0.7
H     4.5    0.8    1.3
H     5.2    0.5   -1.7
H     6.2    0.1   -0.3
H     6.1    2.5    0.6
H     5.0    2.9   -0.9
