          14
 frame:         7077
C     1.0   -0.0    0.6
N     2.3    0.0   -0.0
C     3.2    1.1    0.4
S     4.1   -0.0    1.6
O     3.5   -0.1    2.9
O     5.6    0.0    1.5
C     3.2   -1.1    0.3
H     0.5   -0.9    0.2
H     0.4    0.9    0.3
H     1.1   -0.1    1.7
H     2.6    2.0    0.9
H     3.9    1.5   -0.3
H     3.9   -1.3   -0.5
H     2.7   -2.0    0.7
