          15
 frame:         5429
C     1.3   -0.2   -0.7
C     2.4   -0.2    0.2
N     3.0    1.2    0.4
N     4.2    1.4    0.7
C     4.7    2.5    1.1
C     6.1    2.7    1.3
O     6.6    3.8    1.7
H     0.9   -1.2   -0.8
H     1.6    0.1   -1.7
H     0.4    0.4   -0.4
H     3.3   -0.8   -0.1
H     2.1   -0.6    1.2
H     2.3    1.9    0.6
H     4.0    3.4    1.1
H     6.7    1.8    1.2
