          17
 frame:         1231
C     0.9   -1.2    0.9
C     1.1   -0.4   -0.4
C     1.0    1.1   -0.4
C    -0.2    1.6    0.4
C    -1.5    0.8    0.1
C    -1.4   -0.5   -0.2
C    -0.1   -1.3   -0.3
H     1.5   -2.1    1.1
H     0.5   -0.7    1.8
H     1.9   -0.8   -1.0
H     1.9    1.6   -0.1
H     0.8    1.4   -1.5
H     0.0    1.6    1.4
H    -0.4    2.7    0.1
H    -2.4    1.3    0.2
H    -2.3   -1.1   -0.3
H    -0.1   -2.2   -0.9
