          12
 frame:         2120
C     1.0    0.0   -0.0
C     2.5   -0.1    0.1
C     3.2   -1.2    0.2
C     3.2    1.2   -0.0
C     3.8    2.3   -0.1
C     4.4    3.5   -0.2
N     5.0    4.5   -0.2
H     0.6    0.7    0.8
H     0.6   -0.9    0.0
H     0.7    0.5   -1.0
H     2.6   -2.2    0.2
H     4.3   -1.2    0.2
