          15
 frame:         2323
C     0.9   -0.0   -0.1
C     2.3   -0.3    0.0
C     2.8   -1.7   -0.0
C     2.0   -2.8   -0.1
N     3.1    0.7    0.2
N     4.5    0.4    0.3
C     5.2    1.5    0.4
H     0.7    1.1   -0.0
H     0.3   -0.5    0.8
H     0.5   -0.4   -1.0
H     3.9   -1.9    0.1
H     0.9   -2.7   -0.2
H     2.4   -3.8   -0.1
H     6.3    1.3    0.5
H     4.8    2.5    0.4
