          12
 frame:         2085
C     0.9   -0.0   -0.0
C     2.3    0.1    0.0
C     3.0    1.3    0.0
C     3.7    2.3    0.0
C     4.5    3.5   -0.0
C     3.7    4.7   -0.0
N     3.1    5.7    0.0
H     0.4   -1.0    0.0
H     0.3    0.9    0.0
H     2.9   -0.9    0.0
H     5.1    3.5   -0.9
H     5.1    3.5    0.9
