          16
 frame:          501
C     0.9   -0.2    0.1
C     2.5   -0.1    0.3
C     3.0    1.3    0.2
N     4.5    1.3    0.3
N     5.0    2.5    0.5
C     6.2    2.7    0.2
H     0.6   -1.2    0.1
H     0.7    0.2   -0.9
H     0.4    0.4    0.8
H     3.0   -0.8   -0.5
H     2.7   -0.6    1.2
H     2.6    1.9    1.0
H     2.7    1.7   -0.8
H     5.0    0.7   -0.3
H     6.7    3.7    0.4
H     6.9    1.9   -0.2
