          15
 frame:          324
C     0.9    0.0    1.0
C     0.3    1.0   -0.0
C    -1.2    0.8    0.1
C    -1.2   -0.8    0.1
C     0.3   -1.0   -0.0
N     0.8   -0.0   -1.1
H     2.0   -0.0    1.0
H     0.5    0.0    2.0
H     0.7    2.0   -0.1
H    -1.6    1.2    1.0
H    -1.7    1.2   -0.8
H    -1.8   -1.2   -0.8
H    -1.6   -1.2    1.0
H     0.7   -2.0   -0.1
H     0.2   -0.0   -1.9
