          17
 frame:         3733
C     4.5   -1.7   -1.3
C     4.0   -1.0   -0.3
C     2.9    0.1   -0.4
C     3.3    1.4    0.0
O     2.2    2.3   -0.0
C     2.4    3.6    0.4
C     3.6    4.2    0.8
H     5.3   -2.4   -1.2
H     4.1   -1.5   -2.4
H     4.3   -1.1    0.7
H     2.0   -0.2    0.2
H     2.5    0.1   -1.5
H     4.1    1.8   -0.6
H     3.7    1.4    1.1
H     1.5    4.2    0.3
H     4.5    3.6    0.8
H     3.6    5.2    1.0
