          13
 frame:         6929
C     0.9    0.0   -0.0
C     2.4    0.0   -0.0
C     3.3    1.1    0.0
N     4.6    0.6    0.0
C     4.6   -0.8    0.0
C     3.3   -1.1    0.0
Cl    2.7   -2.8   -0.0
H     0.6    1.1   -0.0
H     0.5   -0.5    0.9
H     0.5   -0.5   -0.9
H     3.1    2.2    0.0
H     5.4    1.2    0.0
H     5.5   -1.3    0.0
