          17
 frame:         3365
C     1.0   -0.1    0.2
C     2.5    0.1   -0.1
C     2.8    0.1   -1.6
O     2.2    1.2   -2.2
C     3.2    1.1    0.8
C     4.1   -0.0    1.3
O     3.3   -1.0    0.6
H     0.8   -0.2    1.3
H     0.6   -1.0   -0.2
H     0.4    0.7   -0.2
H     2.5   -0.9   -2.0
H     3.9    0.2   -1.7
H     1.3    1.0   -2.4
H     2.6    1.6    1.5
H     3.7    1.9    0.2
H     5.1   -0.0    0.9
H     4.1   -0.2    2.4
