          19
 frame:         1393
C     0.7    1.0    0.2
C     2.2    0.9    0.5
C     3.1    1.3   -0.4
C     4.6    1.2   -0.2
C     5.3    0.3   -1.2
C     5.2    2.6   -0.2
C     5.9    3.2    0.8
H     0.2    0.0    0.3
H     0.5    1.4   -0.8
H     0.2    1.6    1.0
H     2.5    0.6    1.4
H     2.8    1.7   -1.4
H     4.8    0.8    0.8
H     5.1    0.7   -2.2
H     4.8   -0.7   -1.2
H     6.4    0.2   -1.0
H     5.1    3.1   -1.2
H     6.0    2.7    1.7
H     6.3    4.2    0.7
