          18
 frame:         2242
C     3.1   -1.5    1.2
C     2.8   -0.6    0.1
C     2.1   -1.0   -1.0
C     3.3    0.9    0.2
N     4.7    0.9    0.4
C     5.5    1.0   -0.9
C     5.3    2.2    0.0
H     4.2   -1.5    1.4
H     2.8   -2.5    1.0
H     2.6   -1.2    2.1
H     1.7   -2.0   -1.1
H     1.9   -0.3   -1.8
H     2.8    1.3    1.1
H     2.9    1.5   -0.6
H     4.9    1.0   -1.8
H     6.4    0.5   -0.9
H     6.2    2.5    0.7
H     4.7    3.0   -0.3
