          17
 frame:          474
C     0.9   -0.1   -0.1
C     2.5   -0.0    0.1
C     2.9   -0.8    1.4
N     3.1   -0.7   -1.1
C     2.9    1.4    0.1
C     3.5    2.1    1.1
H     0.6    0.4   -1.0
H     0.4    0.4    0.8
H     0.6   -1.1   -0.1
H     2.4   -0.3    2.2
H     4.0   -0.8    1.5
H     2.6   -1.8    1.3
H     2.9   -0.2   -1.9
H     2.8   -1.7   -1.1
H     2.7    1.9   -0.9
H     3.7    1.7    2.0
H     3.7    3.2    0.9
