          16
 frame:          737
C     0.9   -0.2    0.2
C     2.4    0.0    0.2
C     3.1    1.2   -0.0
C     2.5    2.5   -0.3
C     4.6    1.1    0.0
O     5.2    1.5   -1.2
H     0.6   -0.9   -0.6
H     0.3    0.8    0.0
H     0.6   -0.6    1.1
H     3.0   -0.9    0.4
H     1.4    2.5   -0.5
H     3.0    3.0   -1.1
H     2.6    3.2    0.6
H     4.9    0.1    0.4
H     5.0    1.9    0.8
H     4.8    0.9   -1.9
