          19
 frame:         4192
C     3.2   -0.5   -0.9
O     4.2    0.5   -0.6
C     3.7    1.5    0.2
C     4.9    2.5    0.5
C     4.5    3.6    1.4
C     5.6    4.6    1.6
O     5.1    5.7    2.5
H     3.6   -1.3   -1.6
H     2.3    0.0   -1.5
H     2.7   -0.9   -0.0
H     3.3    1.1    1.1
H     2.9    2.0   -0.3
H     5.3    2.8   -0.5
H     5.7    1.9    1.0
H     4.1    3.3    2.3
H     3.6    4.2    0.9
H     6.0    5.0    0.7
H     6.4    4.0    2.1
H     5.9    6.3    2.7
