          12
 frame:         7134
N     0.9   -0.0   -0.2
C     2.3    0.1   -0.1
C     3.1    1.2   -0.0
S     4.8    0.9    0.1
C     4.5   -0.8    0.0
O     5.6   -1.6    0.1
C     3.2   -1.1   -0.1
H     0.5    0.8    0.0
H     0.5   -0.8    0.3
H     2.7    2.2    0.0
H     5.3   -2.6    0.0
H     2.8   -2.1   -0.1
