          20
 frame:         1821
C     1.0    0.0   -0.0
C     2.5    0.0    0.0
C     3.1    1.1    0.9
N     4.5    0.7    1.2
C     4.4   -0.8    1.4
C     3.1   -1.3    0.6
C     3.4   -2.4   -0.4
H     0.6   -0.8   -0.6
H     0.6    0.9   -0.5
H     0.5   -0.1    1.0
H     2.9    0.1   -1.0
H     2.5    1.2    1.9
H     3.1    2.1    0.4
H     5.1    0.8    0.4
H     5.3   -1.3    1.1
H     4.3   -1.0    2.5
H     2.4   -1.7    1.4
H     4.2   -2.0   -1.1
H     2.5   -2.6   -1.0
H     3.8   -3.3    0.1
