          17
 frame:         1585
C    -1.7    0.8    0.5
C    -1.1   -0.4   -0.3
C    -0.3   -1.4    0.4
N     1.1   -1.4   -0.1
C     1.7   -0.1   -0.2
C     0.8    1.0    0.4
N    -0.5    1.0   -0.3
H    -2.6    1.2    0.1
H    -1.6    0.7    1.5
H    -1.5   -0.7   -1.3
H    -0.3   -1.2    1.5
H    -0.7   -2.4    0.2
H     1.7   -2.0    0.4
H     2.7   -0.1    0.4
H     1.9    0.2   -1.2
H     0.7    0.9    1.5
H     1.2    2.0    0.3
