          16
 frame:         5575
C     0.6    0.8    0.7
C     1.2   -0.4    0.1
O     2.6   -0.5    0.5
N     3.3   -1.6   -0.1
C     3.9   -2.5    0.8
C     3.4   -2.5    2.2
O     4.8   -3.2    0.4
H    -0.4    0.9    0.4
H     1.1    1.7    0.4
H     0.7    0.8    1.8
H     1.2   -0.4   -1.0
H     0.8   -1.3    0.4
H     3.9   -1.3   -0.9
H     2.3   -2.6    2.2
H     3.6   -1.6    2.7
H     3.8   -3.4    2.7
