          19
 frame:         1356
C     2.6   -1.0    1.1
C     3.0   -0.2   -0.2
C     3.3    1.2    0.1
C     4.5    1.8   -0.2
C     4.8    3.3    0.1
C     5.0    3.8    1.4
C     6.1    3.7    0.5
H     2.3   -2.0    0.9
H     1.7   -0.5    1.6
H     3.4   -0.9    1.9
H     2.2   -0.3   -0.9
H     3.9   -0.7   -0.6
H     2.5    1.8    0.5
H     5.3    1.2   -0.6
H     4.2    3.9   -0.6
H     5.0    3.1    2.3
H     4.6    4.8    1.7
H     6.5    4.7    0.0
H     6.9    3.0    0.7
