          18
 frame:         5655
C     2.1   -0.5   -1.4
N     2.2    0.0   -0.1
C     3.1    1.2   -0.0
C     2.5    2.5   -0.4
O     2.9    3.1    0.8
C     3.2    1.8    1.4
C     4.6    1.8    2.1
H     1.5   -1.4   -1.4
H     3.1   -0.8   -1.9
H     1.6    0.2   -2.1
H     2.6   -0.7    0.5
H     4.1    1.0   -0.5
H     1.4    2.5   -0.5
H     3.0    3.0   -1.3
H     2.5    1.5    2.1
H     5.4    2.1    1.4
H     4.8    0.8    2.4
H     4.6    2.5    2.9
