          14
 frame:         5816
C     1.1   -0.0   -0.7
N     2.5   -0.1   -0.7
C     3.2    0.3    0.3
O     2.8    0.8    1.4
C     4.8    0.2    0.1
C     5.6    0.7    1.2
O     5.2   -0.2   -1.0
H     0.7   -0.5   -1.7
H     0.7    1.0   -0.7
H     0.7   -0.6    0.1
H     3.1   -0.4   -1.5
H     5.4    0.1    2.1
H     5.5    1.7    1.4
H     6.7    0.5    1.0
