          15
 frame:         3929
C     2.0   -0.8    0.1
C     3.4   -0.3    0.1
C     3.4    1.2    0.1
O     2.4    1.9    0.1
C     4.8    1.9    0.0
C     4.9    3.4    0.0
O     5.8    1.2   -0.0
H     2.0   -1.9    0.1
H     1.4   -0.5   -0.8
H     1.4   -0.5    1.0
H     4.0   -0.6   -0.8
H     4.0   -0.6    0.9
H     4.3    3.8   -0.9
H     5.9    3.8   -0.0
H     4.3    3.8    0.9
