          19
 frame:         5735
C     2.7   -0.7   -1.0
N     2.8   -0.0    0.3
C     3.2    1.4    0.1
C     2.5    2.2    1.2
N     2.9    1.7    2.6
C     4.7    1.5    0.2
O     5.3    0.9    1.4
H     2.4   -1.8   -0.8
H     3.6   -0.7   -1.6
H     1.8   -0.3   -1.6
H     3.5   -0.5    0.8
H     2.8    1.8   -0.8
H     1.4    2.2    1.1
H     2.9    3.2    1.2
H     2.5    0.8    2.8
H     2.6    2.4    3.3
H     5.0    2.6    0.1
H     5.2    1.0   -0.7
H     4.7    1.2    2.1
