          22
 frame:         2194
C     2.2   -1.8    0.1
C     3.5   -1.0    0.3
C     3.3    0.4   -0.2
C     4.6    1.3   -0.1
C     4.4    2.7   -0.6
N     5.6    3.5   -0.3
C     5.5    4.9   -0.9
H     2.4   -2.9    0.5
H     1.9   -1.9   -0.9
H     1.4   -1.4    0.7
H     4.3   -1.5   -0.3
H     3.8   -1.0    1.3
H     2.5    0.9    0.3
H     3.0    0.4   -1.3
H     5.4    0.8   -0.6
H     4.9    1.3    1.0
H     3.6    3.2   -0.0
H     4.1    2.7   -1.6
H     6.4    3.0   -0.8
H     4.7    5.4   -0.3
H     5.2    4.9   -1.9
H     6.5    5.4   -0.7
