          13
 frame:          328
C     0.3    1.4    0.4
C    -0.8    0.8   -0.5
C    -1.4   -0.4    0.1
C    -0.4   -1.4    0.2
C     0.9   -0.9   -0.3
N     0.7    0.5   -0.7
H     0.6    2.5    0.2
H     0.4    1.1    1.4
H    -1.3    1.4   -1.2
H    -2.4   -0.5    0.4
H    -0.6   -2.4    0.7
H     1.7   -1.0    0.5
H     1.2   -1.5   -1.1
