          20
 frame:         1935
C     2.9   -1.1   -0.7
C     2.4    0.1    0.1
C     3.4    1.3    0.1
C     3.5    2.3   -1.0
C     2.7    2.3   -2.3
C     2.9    2.7    0.3
N     3.5    3.7    1.1
H     2.2   -1.9   -0.7
H     3.9   -1.5   -0.2
H     3.2   -0.8   -1.7
H     2.1   -0.2    1.1
H     1.4    0.4   -0.4
H     4.3    1.1    0.6
H     4.5    2.7   -1.2
H     1.6    1.9   -2.1
H     3.1    1.6   -3.0
H     2.6    3.3   -2.7
H     1.8    2.8    0.3
H     4.5    3.7    1.0
H     3.4    3.5    2.1
