          14
 frame:          286
C     1.0   -0.1    0.3
C     2.5   -0.0   -0.0
C     2.8   -0.8   -1.3
C     3.4   -0.3   -2.4
C     3.0    1.4   -0.1
C     3.4    2.5   -0.1
H     0.8    0.4    1.2
H     0.7   -1.1    0.3
H     0.4    0.5   -0.5
H     3.0   -0.5    0.8
H     2.5   -1.8   -1.3
H     3.8    0.7   -2.4
H     3.6   -0.9   -3.3
H     3.7    3.5   -0.1
