          18
 frame:         5521
C     0.5   -0.3   -0.4
C     1.9   -0.3   -0.8
O     2.2    0.8   -1.6
C     2.8   -0.2    0.5
N     4.2   -0.1    0.0
C     5.3   -0.3    1.1
C     5.0   -1.3   -0.0
H     0.2   -1.2    0.2
H    -0.1   -0.3   -1.4
H     0.2    0.6    0.1
H     2.2   -1.2   -1.3
H     3.2    0.9   -1.6
H     2.7   -1.1    1.1
H     2.6    0.7    1.0
H     4.9   -0.6    2.1
H     6.1    0.3    1.0
H     5.7   -1.4   -0.8
H     4.5   -2.2    0.3
