          14
 frame:         2059
C     0.9   -0.0    0.0
C     2.3   -0.0    0.0
C     3.0   -1.3   -0.1
C     3.7   -2.3   -0.1
C     3.1    1.2    0.1
C     2.7    2.5    0.8
N     3.7    1.6    1.4
H     0.4    0.9    0.1
H     0.4   -0.9    0.0
H     4.3   -3.2   -0.2
H     3.8    1.3   -0.8
H     1.8    2.5    1.3
H     3.0    3.4    0.3
H     4.7    1.9    1.2
