          15
 frame:         3718
C     1.0    0.0   -0.1
C     2.5   -0.1   -0.0
C     3.0   -1.5    0.2
C     3.2    1.0   -0.1
C     4.7    1.1    0.1
O     5.5    0.2   -0.6
O     5.2    2.0    0.8
H     0.6    1.0   -0.3
H     0.5   -0.4    0.8
H     0.6   -0.6   -1.0
H     2.4   -2.0    1.0
H     4.1   -1.5    0.4
H     2.8   -2.1   -0.7
H     2.7    2.0   -0.1
H     4.9   -0.3   -1.2
