          15
 frame:         4886
C     0.9    0.2   -0.1
C     2.4    0.1    0.1
O     3.1   -0.9   -0.5
C     3.4    0.5   -0.9
C     4.8    0.9   -0.6
N     5.4    1.7   -1.4
N     6.6    2.2   -1.0
H     0.6    1.2    0.2
H     0.4   -0.5    0.4
H     0.7    0.1   -1.2
H     2.7    0.3    1.2
H     3.1    0.7   -1.9
H     5.2    0.7    0.4
H     7.1    1.7   -0.3
H     7.2    2.4   -1.9
