          15
 frame:         3059
C    -1.6    0.9    0.6
C    -1.4   -0.3   -0.2
C    -0.4   -1.4    0.1
C     0.9   -0.7    0.2
O     1.1    0.3    1.2
C     0.8    0.7   -0.2
C    -0.7    1.0   -0.5
H    -2.6    1.4    0.5
H    -1.2    0.9    1.6
H    -2.3   -0.6   -0.9
H    -0.7   -1.9    1.1
H    -0.4   -2.2   -0.6
H     1.8   -1.3    0.0
H     1.6    1.2   -0.7
H    -0.9    1.6   -1.4
