          19
 frame:         5371
C     3.0   -1.0   -1.2
C     2.7   -0.1   -0.0
N     3.2   -0.7    1.3
C     3.2    1.3   -0.1
N     2.8    2.2    1.0
C     4.7    1.5   -0.3
O     5.1    2.9   -0.3
H     2.7   -0.5   -2.2
H     2.6   -2.0   -1.1
H     4.1   -1.1   -1.3
H     1.6   -0.1    0.1
H     4.1   -1.0    1.2
H     2.6   -1.5    1.5
H     2.7    1.8   -1.0
H     2.9    1.6    1.9
H     1.9    2.5    1.0
H     5.0    1.1   -1.3
H     5.2    0.9    0.5
H     4.5    3.2    0.4
