          12
 frame:          820
C     1.0   -0.2    0.1
C     2.3    0.1   -0.5
O     2.7   -0.3   -1.5
C     3.2    1.2    0.3
C     2.6    2.5    0.6
O     2.8    1.5    1.6
H     0.4    0.6    0.5
H     1.2   -0.9    1.0
H     0.4   -0.8   -0.6
H     4.2    1.1    0.1
H     1.6    2.7    0.4
H     3.3    3.4    0.7
