          13
 frame:         5751
C     1.0   -0.0   -0.2
N     2.4    0.0    0.0
C     3.1   -1.2    0.0
C     3.1    1.2    0.2
O     4.3    1.3    0.3
C     2.3    2.4    0.1
N     1.8    3.5    0.2
H     0.5    1.0   -0.2
H     0.5   -0.6    0.6
H     0.7   -0.5   -1.1
H     2.8   -1.9    0.8
H     4.2   -1.0    0.2
H     3.0   -1.7   -1.0
