          14
 frame:          104
C     0.9   -0.0    0.0
C     2.4   -0.1   -0.0
C     3.2    1.0    0.0
C     4.7    0.9   -0.0
N     5.2    1.7   -1.2
H     0.5   -0.5    0.9
H     0.4   -0.5   -0.8
H     0.5    1.0    0.1
H     2.8   -1.1   -0.1
H     2.8    2.0    0.0
H     5.0   -0.2   -0.0
H     5.1    1.3    0.9
H     4.9    1.2   -2.0
H     6.2    1.6   -1.2
