          16
 frame:          497
C     0.9   -0.2   -0.1
C     2.4   -0.1   -0.2
C     3.0   -1.0   -1.3
N     2.8    1.3   -0.6
N     4.1    1.6   -0.6
C     4.5    2.8   -0.4
H     0.5    0.5    0.7
H     0.6   -1.2    0.1
H     0.4    0.1   -1.1
H     2.9   -0.4    0.7
H     2.5   -0.8   -2.3
H     2.8   -2.1   -1.1
H     4.1   -0.9   -1.4
H     2.2    2.0   -0.1
H     5.5    3.0   -0.4
H     3.8    3.6   -0.1
