          16
 frame:         1606
C     1.6   -0.4    0.6
N     0.8   -1.6    0.4
C    -0.1   -0.8   -0.5
C    -1.4   -0.5    0.2
C    -1.4    0.8    0.6
C    -0.2    1.6    0.2
C     0.7    0.5   -0.4
H     2.7   -0.5    0.2
H     1.6   -0.0    1.6
H     1.3   -2.3   -0.1
H    -0.3   -1.3   -1.5
H    -2.2   -1.2    0.4
H    -2.2    1.3    1.2
H     0.3    2.0    1.1
H    -0.4    2.4   -0.5
H     1.2    0.8   -1.3
