          18
 frame:         4702
C     0.9    0.1   -0.1
C     2.5   -0.0    0.1
C     3.3   -0.8   -1.0
N     2.9   -1.4   -2.2
C     3.4    0.7   -0.8
C     2.9    1.6   -1.9
O     4.5    1.2   -0.1
H     0.6    1.0    0.3
H     0.5   -0.8    0.5
H     0.6   -0.0   -1.1
H     2.8   -0.1    1.1
H     4.2   -1.3   -0.5
H     2.3   -0.8   -2.8
H     2.3   -2.2   -2.0
H     2.0    1.3   -2.4
H     3.7    1.8   -2.7
H     2.8    2.6   -1.5
H     5.3    1.2   -0.7
