          15
 frame:         3497
C     0.9   -0.1   -0.1
C     2.4    0.1    0.2
C     3.1    1.2    0.1
C     4.6    1.4    0.4
O     4.9    2.8    0.2
C     3.7    3.4   -0.2
C     2.7    2.5   -0.3
H     0.8   -0.8   -0.9
H     0.5    0.8   -0.4
H     0.4   -0.5    0.8
H     3.0   -0.8    0.5
H     5.2    0.8   -0.2
H     4.8    1.1    1.5
H     3.8    4.5   -0.4
H     1.7    2.9   -0.6
