          16
 frame:          736
C     0.7    0.3    0.0
C     2.1    0.0    0.2
C     3.1    0.8   -0.1
C     4.6    0.6    0.1
C     5.1    1.5    1.2
O     4.5    1.2    2.5
H     0.2   -0.5   -0.6
H     0.5    1.3   -0.4
H     0.1    0.2    1.0
H     2.4   -1.0    0.7
H     2.9    1.8   -0.6
H     5.1    0.8   -0.8
H     4.7   -0.5    0.4
H     5.0    2.5    0.9
H     6.2    1.3    1.4
H     3.5    1.2    2.3
