          23
 frame:         1226
C     2.2   -0.5   -1.1
C     3.4    0.3   -0.6
C     3.1    1.8   -0.4
C     4.3    2.5    0.2
C     4.1    4.0    0.3
C     2.9    4.5    1.2
C     5.4    4.7    0.8
H     2.5   -1.6   -1.3
H     1.9   -0.1   -2.1
H     1.3   -0.4   -0.5
H     4.3    0.1   -1.2
H     3.7   -0.2    0.4
H     2.2    1.9    0.2
H     2.9    2.2   -1.4
H     5.2    2.3   -0.3
H     4.5    2.1    1.2
H     3.9    4.4   -0.7
H     3.0    4.1    2.2
H     2.0    4.1    0.8
H     2.8    5.5    1.3
H     5.6    4.4    1.9
H     5.3    5.8    0.9
H     6.2    4.5    0.2
