          15
 frame:         4806
C     0.9   -0.1   -0.5
C     2.2    0.6    0.0
N     3.4   -0.2    0.0
C     3.3    0.9   -0.9
C     4.1    2.1   -0.8
N     4.9    2.1    0.4
O     4.1    3.0   -1.6
H     0.1    0.7   -0.7
H     0.5   -0.7    0.3
H     1.1   -0.7   -1.4
H     2.1    1.2    0.9
H     3.3   -1.1   -0.4
H     3.1    0.7   -2.0
H     4.9    1.2    0.9
H     5.5    2.9    0.6
