          12
 frame:         6989
C     2.8   -1.2    0.4
C     2.3   -0.0    0.2
C     3.0    1.2    0.1
C     2.5    2.5   -0.1
C     3.6    3.5   -0.1
N     4.8    3.1    0.2
S     4.8    1.4    0.4
H     2.1   -2.1    0.4
H     3.9   -1.4    0.6
H     1.2    0.1   -0.0
H     1.5    2.7   -0.3
H     3.4    4.6   -0.2
