          18
 frame:         2273
C     1.0   -0.0    0.1
C     2.4    0.0    0.0
C     3.6    0.0   -0.0
C     5.1    0.0   -0.1
N     5.7    1.4   -0.0
C     5.4    2.0    1.3
C     7.1    1.3   -0.2
H     0.6    1.0    0.1
H     0.6   -0.5    0.9
H     0.6   -0.5   -0.8
H     5.4   -0.4   -1.0
H     5.5   -0.6    0.8
H     4.3    2.1    1.4
H     5.8    3.1    1.2
H     5.8    1.5    2.1
H     7.3    0.8   -1.2
H     7.7    0.7    0.6
H     7.6    2.3   -0.2
