          17
 frame:         1422
C     0.8    0.0    0.1
C     2.3   -0.2    0.0
C     2.7   -1.6    0.3
C     3.1    0.8   -0.2
C     4.6    0.8   -0.3
C     5.2    1.2   -1.6
C     5.6    1.6   -2.6
H     0.5    1.1   -0.1
H     0.4   -0.2    1.1
H     0.3   -0.6   -0.7
H     2.2   -2.3   -0.4
H     2.4   -1.9    1.3
H     3.8   -1.8    0.3
H     2.7    1.8   -0.4
H     5.0   -0.2   -0.1
H     5.0    1.4    0.5
H     6.0    2.0   -3.6
