          15
 frame:         2317
C     1.3   -0.3    1.1
C     2.2   -0.2    0.1
C     3.0    1.1   -0.2
C     4.5    0.8   -0.0
N     5.3    0.9   -1.0
N     6.6    0.7   -0.6
C     7.4    0.8   -1.6
H     0.8   -1.2    1.3
H     1.1    0.6    1.7
H     2.4   -1.1   -0.5
H     2.6    1.9    0.4
H     2.8    1.4   -1.3
H     4.8    0.6    1.0
H     8.5    0.6   -1.4
H     7.1    1.1   -2.6
