          17
 frame:         3207
C     0.9   -0.0    0.0
C     2.5    0.1    0.1
C     3.1    1.2    0.9
C     4.5    0.7    1.2
C     4.3   -0.8    1.4
C     3.1   -1.2    0.6
O     2.7   -2.4    0.4
H     0.6   -0.9   -0.5
H     0.5    0.9   -0.5
H     0.5   -0.1    1.0
H     2.9    0.1   -1.0
H     2.5    1.3    1.9
H     3.1    2.1    0.4
H     5.2    0.8    0.3
H     5.0    1.2    2.0
H     5.2   -1.5    1.2
H     4.1   -1.1    2.5
