          13
 frame:         1977
C     0.9   -0.0    0.0
C     2.2   -0.0    0.0
C     3.6    0.0   -0.0
C     4.2   -1.2   -0.8
N     4.7   -0.7   -2.1
C     4.6    0.6   -2.0
N     4.2    1.1   -0.8
H    -0.1   -0.0    0.1
H     4.0    0.0    1.0
H     3.5   -2.0   -0.9
H     5.1   -1.6   -0.3
H     4.8    1.3   -2.8
H     3.6    2.0   -0.8
