          15
 frame:         6363
N     4.4   -1.4   -0.3
C     3.2   -0.6   -0.3
N     2.0   -1.1   -0.6
C     3.4    0.8   -0.2
C     4.5    1.5   -0.1
C     4.6    3.0    0.1
O     5.3    3.3    1.4
H     5.1   -1.0    0.3
H     4.2   -2.4   -0.2
H     2.0   -2.1   -0.7
H     2.4    1.4   -0.1
H     5.5    1.0   -0.1
H     3.6    3.4    0.1
H     5.2    3.5   -0.7
H     4.8    2.9    2.1
