          15
 frame:         4158
C     1.6   -0.0   -0.5
O     3.0    0.4   -0.5
C     3.2    1.6   -0.0
C     2.3    2.6    0.2
C     4.7    1.9    0.1
C     5.4    1.1    1.1
C     5.9    0.5    2.0
H     1.6   -1.1   -0.9
H     1.1    0.6   -1.3
H     1.1    0.1    0.4
H     1.2    2.4    0.2
H     2.6    3.6    0.6
H     4.9    3.0    0.2
H     5.2    1.6   -0.9
H     6.4   -0.1    2.8
