          17
 frame:         6123
N     1.1   -0.1   -0.1
C     2.5   -0.1    0.0
C     3.3   -0.7   -1.1
N     2.6   -1.3   -2.3
C     3.2    0.8   -1.0
C     4.5    1.6   -0.6
O     5.3    1.9   -1.7
H     0.7    0.7    0.3
H     0.7   -0.9    0.5
H     3.0   -0.2    1.0
H     4.2   -1.2   -0.9
H     1.7   -1.0   -2.3
H     2.5   -2.3   -2.1
H     2.6    1.3   -1.7
H     5.0    1.0    0.2
H     4.2    2.5   -0.2
H     5.4    1.1   -2.2
