          15
 frame:         1448
C     1.0    0.1    0.0
C     2.4    0.0    0.0
C     3.6   -0.0   -0.0
C     5.1   -0.0   -0.0
C     5.8   -1.2   -0.3
C     5.8    1.2    0.3
C     5.2    2.4    0.7
H     0.6    1.1    0.0
H     0.6   -0.5    0.9
H     0.6   -0.4   -0.9
H     5.2   -2.1   -0.6
H     6.8   -1.2   -0.3
H     6.9    1.1    0.3
H     4.1    2.5    0.7
H     5.8    3.2    0.9
