          19
 frame:         1814
C     1.0   -0.1    0.1
C     2.5   -0.1    0.0
C     3.3   -0.7   -1.1
N     2.8   -1.4   -2.3
C     3.3    0.8   -1.0
C     4.5    1.6   -0.6
N     5.3    1.9   -1.8
H     0.6    0.8    0.6
H     0.7   -1.0    0.6
H     0.6   -0.1   -1.0
H     3.0   -0.1    1.0
H     4.3   -1.1   -0.8
H     2.1   -0.8   -2.8
H     2.2   -2.2   -2.0
H     2.6    1.3   -1.7
H     5.1    1.0    0.1
H     4.2    2.5   -0.2
H     5.6    1.1   -2.3
H     6.1    2.5   -1.6
