          19
 frame:         2649
C     2.2   -0.5   -1.4
N     2.3    0.0   -0.1
C     3.1    1.2   -0.0
C     2.5    2.6   -0.5
N     3.0    3.2    0.7
C     3.3    1.9    1.3
C     4.6    1.7    2.1
H     1.6   -1.5   -1.4
H     3.1   -0.8   -1.9
H     1.6    0.2   -2.1
H     2.6   -0.7    0.5
H     4.1    1.1   -0.5
H     1.4    2.5   -0.5
H     2.8    3.0   -1.4
H     3.9    3.7    0.5
H     2.4    1.6    2.0
H     5.5    1.9    1.4
H     4.7    0.7    2.5
H     4.7    2.4    2.9
