          12
 frame:          730
C     1.0    0.0    0.0
C     2.4   -0.0    0.0
C     3.6   -0.1   -0.0
C     5.1   -0.1    0.0
C     5.8   -0.7   -1.1
O     5.8    0.7   -0.9
H     0.6    1.0   -0.4
H     0.6   -0.1    1.0
H     0.5   -0.8   -0.6
H     5.5   -0.2    1.0
H     5.3   -1.1   -2.0
H     6.8   -1.1   -0.9
