          17
 frame:         4273
O     0.8   -0.1   -0.2
C     2.1    0.0    0.1
C     3.1   -0.8   -0.6
C     2.6   -1.5   -1.9
C     2.8   -0.4   -3.0
C     2.7    1.0   -2.2
C     3.1    0.7   -0.8
H     0.4    0.8   -0.1
H     2.3    0.1    1.2
H     3.9   -1.4   -0.0
H     3.2   -2.4   -2.1
H     1.5   -1.8   -1.8
H     3.8   -0.5   -3.4
H     2.1   -0.5   -3.8
H     3.3    1.8   -2.7
H     1.6    1.3   -2.2
H     3.9    1.3   -0.4
