          15
 frame:         4575
C     1.7   -0.1   -0.1
C     0.8   -1.2    0.5
N    -0.4   -1.4   -0.2
C    -1.4   -0.5   -0.2
N    -1.4    0.8    0.0
O    -0.2    1.4    0.4
C     0.9    1.1   -0.5
H     2.3   -0.5   -1.0
H     2.5    0.2    0.6
H     1.4   -2.2    0.6
H     0.6   -0.9    1.6
H    -0.7   -2.4   -0.3
H    -2.4   -0.9   -0.5
H     1.5    2.0   -0.6
H     0.5    0.9   -1.5
