          20
 frame:         2031
C     1.2   -0.0   -0.7
C     2.7    0.1   -0.9
C     3.5    0.6    0.3
C     5.0    0.7    0.1
C     5.6    1.7   -0.8
C     6.7    1.9    0.2
N     5.8    1.3    1.2
H     0.7   -0.4   -1.6
H     0.8    1.0   -0.4
H     0.9   -0.7    0.2
H     2.9    0.7   -1.8
H     3.1   -0.9   -1.1
H     3.3   -0.1    1.2
H     3.1    1.6    0.6
H     5.4   -0.3   -0.2
H     4.9    2.6   -0.9
H     5.9    1.4   -1.9
H     7.6    1.3   -0.0
H     7.0    2.9    0.5
H     6.2    0.6    1.8
