          19
 frame:         1381
C     0.9   -0.1   -0.3
C     2.4    0.1   -0.4
C     3.1    1.2    0.0
C     2.5    2.4    0.7
C     4.6    1.2   -0.1
C     5.3    0.0   -0.8
C     5.3    2.2    0.3
H     0.7   -1.0    0.2
H     0.5   -0.2   -1.3
H     0.4    0.8    0.1
H     2.9   -0.7   -0.9
H     1.4    2.3    0.8
H     2.7    3.3    0.2
H     2.9    2.5    1.7
H     4.9   -0.1   -1.8
H     5.1   -0.9   -0.2
H     6.3    0.2   -0.8
H     4.9    3.1    0.8
H     6.4    2.2    0.2
