          17
 frame:         4401
O     2.5   -0.3   -1.6
C     2.4    0.0   -0.2
C     3.3    1.3    0.0
C     3.3    1.7    1.5
C     3.3    3.3    1.5
C     2.8    3.6    0.1
C     2.7    2.5   -0.7
H     1.9   -1.1   -1.7
H     2.8   -0.8    0.4
H     1.4    0.2    0.1
H     4.3    1.1   -0.4
H     4.2    1.3    2.0
H     2.4    1.4    2.0
H     4.3    3.7    1.6
H     2.7    3.7    2.3
H     2.5    4.6   -0.1
H     2.4    2.5   -1.7
