          12
 frame:         6715
O     0.9    0.1   -0.0
C     2.4    0.1    0.0
C     2.9    1.4   -0.0
C     3.4    2.5   -0.0
C     4.0    3.8   -0.0
C     3.1    4.9    0.0
N     2.3    5.8    0.0
H     0.6   -0.8   -0.0
H     2.8   -0.5   -0.9
H     2.7   -0.5    0.9
H     4.7    4.0   -0.9
H     4.7    4.0    0.9
