          12
 frame:         6873
O     2.0   -0.4    1.6
N     2.6    0.3    0.5
C     3.5   -0.5   -0.3
C     2.7   -1.5   -1.1
C     2.1   -2.3   -1.8
C     2.8    1.6    0.7
O     3.4    2.3    0.0
H     1.2   -0.8    1.3
H     4.2   -1.0    0.3
H     4.0    0.2   -1.0
H     1.6   -3.0   -2.3
H     2.2    2.0    1.6
