          16
 frame:         1572
C     2.0   -0.2   -0.0
C     0.7   -0.9    0.2
C    -0.5   -1.5   -0.5
C    -1.6   -0.6   -0.2
C    -1.4    0.7    0.3
C    -0.1    1.4    0.5
N     0.8    0.5   -0.3
H     2.6   -0.4   -0.9
H     2.6   -0.0    0.9
H     0.5   -0.9    1.3
H    -0.7   -2.5   -0.1
H    -0.3   -1.6   -1.6
H    -2.6   -1.0   -0.3
H    -2.3    1.3    0.5
H     0.2    1.4    1.5
H    -0.1    2.4    0.0
