          15
 frame:         4479
O     2.5   -0.5   -1.5
C     2.2   -0.1   -0.1
C     2.9    1.2    0.2
C     4.4    1.1    0.2
C     5.2    1.5    1.2
C     6.6    1.4    1.2
C     7.8    1.3    1.2
H     2.2   -1.4   -1.6
H     2.6   -0.9    0.6
H     1.1   -0.0    0.0
H     2.6    1.5    1.2
H     2.6    1.9   -0.6
H     4.9    0.7   -0.8
H     4.8    1.8    2.1
H     8.9    1.3    1.2
