          12
 frame:          943
O     1.0    0.1   -0.1
C     2.4    0.1    0.1
C     2.9    1.5    0.0
C     2.1    2.6   -0.1
C     4.3    1.7    0.1
O     5.2    0.8    0.3
H     0.7   -0.9   -0.0
H     2.9   -0.5   -0.8
H     2.7   -0.4    1.0
H     1.0    2.5   -0.2
H     2.5    3.6   -0.1
H     4.6    2.8    0.1
