          15
 frame:         4075
C     1.0   -0.0    0.1
C     2.5   -0.0    0.0
O     3.1   -0.8    1.1
C     3.0   -0.8   -1.2
O     4.4   -0.9   -1.3
C     3.0    1.4    0.0
C     3.4    2.5    0.0
H     0.5    0.5   -0.8
H     0.6    0.5    1.0
H     0.6   -1.1    0.2
H     3.2   -0.1    1.9
H     2.6   -0.3   -2.1
H     2.5   -1.8   -1.2
H     4.6   -1.2   -0.4
H     3.7    3.5    0.1
