          19
 frame:         3489
C     2.3   -1.5   -0.5
C     1.9   -0.1    0.0
C     3.0    0.8    0.5
C     3.8    0.3    1.7
O     3.9    1.3   -0.6
C     3.0    2.2    0.1
C     3.6    3.4    0.9
H     1.5   -2.0   -0.9
H     2.8   -2.1    0.4
H     3.1   -1.4   -1.2
H     1.1   -0.2    0.8
H     1.4    0.4   -0.8
H     4.6    1.0    2.0
H     4.2   -0.7    1.5
H     3.1    0.2    2.6
H     2.1    2.5   -0.5
H     4.5    3.0    1.5
H     2.9    3.8    1.6
H     4.0    4.1    0.2
