          14
 frame:         1710
C     1.0   -0.0    0.1
C     2.5   -0.0   -0.0
C     3.2    1.2   -0.1
C     4.6    1.1   -0.2
C     5.2   -0.1   -0.2
N     4.6   -1.3   -0.1
C     3.2   -1.2   -0.0
H     0.6    1.0    0.0
H     0.6   -0.5    1.0
H     0.5   -0.6   -0.8
H     2.7    2.1   -0.1
H     5.2    2.0   -0.2
H     6.3   -0.2   -0.2
H     2.7   -2.2    0.0
