          12
 frame:          300
C     0.9   -0.1   -0.0
C     2.4   -0.0   -0.0
C     3.6    0.0   -0.0
C     5.1    0.1   -0.0
C     5.6    1.4    0.0
C     6.1    2.5    0.0
H     0.5    1.0    0.0
H     0.5   -0.6    0.9
H     0.5   -0.6   -0.9
H     5.4   -0.5   -0.9
H     5.4   -0.5    0.9
H     6.5    3.5    0.0
