          13
 frame:         4032
C     1.0    0.0    0.0
C     2.5   -0.1    0.2
O     3.1   -1.1    0.4
C     3.2    1.2    0.1
C     3.8    2.3    0.0
C     4.5    3.5   -0.1
O     3.7    4.7   -0.3
H     0.5    0.7    0.8
H     0.5   -1.0    0.1
H     0.7    0.4   -1.0
H     5.3    3.4   -0.9
H     5.0    3.7    0.8
H     3.1    4.5   -1.1
