          16
 frame:         6700
O     2.4   -0.5    1.5
C     2.2   -0.1    0.2
C     2.8    1.3   -0.0
C     2.1    2.4   -0.5
C     4.3    1.4    0.3
C     5.3    1.4   -0.8
N     5.0    2.6   -0.0
H     2.1   -1.4    1.6
H     1.1   -0.0   -0.1
H     2.7   -0.8   -0.5
H     1.1    2.2   -0.7
H     2.6    3.3   -0.6
H     4.6    0.8    1.2
H     5.0    1.4   -1.8
H     6.3    0.9   -0.6
H     5.7    2.8    0.7
