          18
 frame:         5584
C     1.0   -0.3    0.0
N     2.5   -0.4   -0.1
C     3.0   -0.7   -1.4
C     3.1    0.7   -0.9
C     4.4    1.3   -0.3
C     4.2    1.8    1.1
O     4.0    0.8    2.1
H     0.7    0.3    0.9
H     0.6   -1.3    0.2
H     0.6    0.1   -0.9
H     2.3   -0.9   -2.2
H     3.9   -1.3   -1.4
H     2.5    1.4   -1.3
H     4.8    2.1   -1.0
H     5.2    0.5   -0.3
H     3.4    2.6    1.1
H     5.2    2.3    1.5
H     3.4    0.1    1.6
