          16
 frame:         1670
C     0.9    0.0   -0.2
C     2.4    0.0    0.0
C     3.2    1.1    0.0
C     4.7    0.8    0.2
N     5.2   -0.1   -0.9
C     4.7   -0.8    0.3
C     3.2   -1.2    0.2
H     0.7   -0.6   -1.1
H     0.5    1.0   -0.4
H     0.4   -0.5    0.6
H     2.9    2.1   -0.1
H     5.4    1.4    0.7
H     4.6   -0.1   -1.7
H     5.4   -1.3    0.9
H     3.0   -1.7    1.2
H     3.0   -2.0   -0.5
