          16
 frame:         6667
O     1.3    0.4   -0.6
C     2.5   -0.0   -0.1
C     3.4    1.2    0.1
N     3.4    2.3   -0.8
C     2.8    2.5    0.6
C     3.5    3.5    1.4
O     4.9    3.5    1.1
H     0.8   -0.4   -0.9
H     3.1   -0.7   -0.8
H     2.4   -0.6    0.8
H     4.4    1.0    0.5
H     2.6    2.2   -1.5
H     1.7    2.5    0.6
H     3.5    3.2    2.5
H     3.1    4.5    1.3
H     4.9    3.4    0.1
