          17
 frame:         5292
C    -1.0   -1.2    0.5
C     0.1   -2.0   -0.1
C    -0.0   -3.5    0.2
O    -0.0   -1.8   -1.5
N     1.1   -2.3   -2.2
C     0.8   -3.2   -3.3
N    -0.3   -3.8   -3.5
H    -0.9   -0.1    0.3
H    -1.0   -1.3    1.6
H    -2.0   -1.5    0.2
H     1.1   -1.7    0.2
H    -1.0   -3.9   -0.1
H     0.1   -3.7    1.3
H     0.7   -4.1   -0.3
H     1.7   -1.5   -2.5
H     1.7   -3.3   -3.9
H    -1.0   -3.5   -2.8
