          16
 frame:         1951
C     1.0   -0.1    0.1
C     2.2   -0.0    0.1
C     3.6   -0.1   -0.1
C     4.3    1.2    0.6
C     5.5    0.5    1.4
N     5.7   -0.9    1.0
C     4.3   -1.3    0.7
H    -0.1   -0.1    0.2
H     3.9   -0.1   -1.1
H     3.7    1.7    1.2
H     4.7    1.9   -0.2
H     6.5    1.1    1.3
H     5.3    0.6    2.5
H     6.2   -0.9    0.1
H     4.3   -2.2    0.1
H     3.8   -1.5    1.6
