          18
 frame:         5873
C     1.7   -0.2   -1.4
O     2.1    0.3   -0.1
C     3.1    1.4   -0.2
C     2.5    2.7   -0.8
C     2.9    3.7    0.3
N     2.9    3.0    1.5
C     3.6    1.7    1.2
H     1.1   -1.1   -1.2
H     2.6   -0.6   -2.0
H     1.2    0.6   -2.0
H     3.9    1.0   -0.9
H     1.4    2.6   -0.7
H     2.8    2.9   -1.8
H     4.0    4.1    0.0
H     2.3    4.6    0.3
H     3.4    3.5    2.3
H     4.7    1.8    1.1
H     3.3    0.9    1.9
