          15
 frame:         1784
C     0.9    0.0    0.1
C     2.4    0.1    0.0
C     3.2    1.2    0.1
C     4.6    1.1   -0.0
N     5.3   -0.0    0.1
N     4.5   -1.1    0.3
C     3.2   -1.2   -0.3
H     0.6   -0.7    1.0
H     0.5   -0.4   -0.8
H     0.5    1.0    0.3
H     2.7    2.2    0.3
H     5.2    2.0   -0.1
H     5.0   -2.0    0.2
H     2.6   -2.1    0.1
H     3.2   -1.4   -1.4
