          17
 frame:         3224
C     1.0    0.1    0.2
C     2.5   -0.0   -0.1
C     2.9   -1.3   -0.9
C     3.3   -0.7   -2.2
C     3.8   -1.5   -3.4
C     3.2    0.7   -2.2
O     2.8    1.1   -0.9
H     0.7    1.0    0.7
H     0.7   -0.8    0.9
H     0.4   -0.1   -0.8
H     3.0    0.1    0.8
H     2.1   -2.0   -1.0
H     3.8   -1.8   -0.4
H     4.0   -0.9   -4.3
H     3.0   -2.2   -3.7
H     4.6   -2.1   -3.2
H     3.5    1.4   -2.9
