          18
 frame:         5646
C     1.7   -0.6   -1.1
N     2.2   -0.0    0.1
C     3.1    1.2   -0.1
C     4.3    0.9   -0.9
C     2.3    2.4   -0.5
O     2.8    3.2    0.6
C     3.4    1.9    1.2
H     1.0   -1.5   -0.8
H     2.5   -1.0   -1.8
H     1.1    0.1   -1.6
H     2.8   -0.7    0.6
H     4.9    1.9   -1.1
H     4.1    0.6   -2.0
H     5.0    0.2   -0.5
H     1.2    2.3   -0.4
H     2.5    2.9   -1.4
H     4.4    2.1    1.5
H     2.8    1.6    2.1
