          16
 frame:         5269
C     1.0   -0.4    0.1
C     2.5   -0.3   -0.2
C     2.9   -1.2   -1.4
O     2.8    1.1   -0.7
C     3.0    2.0    0.3
N     3.0    1.7    1.6
O     3.3    2.9    2.3
H     0.8    0.3    0.9
H     0.8   -1.4    0.5
H     0.4   -0.2   -0.8
H     3.1   -0.5    0.7
H     2.3   -1.0   -2.3
H     2.7   -2.3   -1.1
H     3.9   -1.1   -1.6
H     3.3    3.0   -0.1
H     3.2    2.6    3.2
