          16
 frame:         6845
O     0.9    0.7    0.9
N     1.9    0.8   -0.1
C     3.0    1.1    0.4
C     4.2    1.3   -0.5
C     4.8    2.7   -0.3
C     5.8    3.0    0.7
C     6.2    3.0   -0.7
H     0.1    0.4    0.4
H     3.1    1.2    1.5
H     3.9    1.2   -1.5
H     5.0    0.6   -0.3
H     4.1    3.5   -0.6
H     6.1    2.2    1.4
H     5.7    4.0    1.2
H     6.5    3.9   -1.2
H     6.8    2.1   -1.0
