          12
 frame:         2932
N     1.0   -0.1    0.0
C     2.2   -0.1    0.0
C     3.6    0.0    0.0
N     4.4   -1.1    0.0
N     5.7   -0.7    0.1
C     5.8    0.8   -0.3
C     4.4    1.3    0.1
H     6.3   -1.3   -0.3
H     6.0    0.9   -1.4
H     6.6    1.3    0.3
H     4.0    2.1   -0.7
H     4.4    1.7    1.1
