          15
 frame:          974
C     0.8    0.1   -0.3
C     2.2   -0.1    0.1
C     2.5    0.0    1.6
N     1.9   -1.0    2.4
C     3.2   -0.8   -0.8
O     3.2    0.6   -0.7
H     0.7    0.1   -1.4
H     0.4    1.1    0.0
H     0.2   -0.7    0.1
H     2.3    1.1    1.9
H     3.6   -0.1    1.7
H     0.9   -0.8    2.5
H     2.3   -1.1    3.3
H     2.8   -1.3   -1.7
H     4.0   -1.3   -0.3
