          13
 frame:         1449
C     1.0    0.1    0.0
C     2.4    0.0    0.0
C     3.7   -0.1    0.0
C     5.1   -0.1    0.0
C     5.8   -1.2   -0.0
C     5.8    1.2    0.0
C     6.3    2.3    0.0
H     0.6    1.1    0.0
H     0.6   -0.5    0.9
H     0.6   -0.4   -0.9
H     5.3   -2.2   -0.0
H     6.9   -1.2   -0.0
H     6.8    3.2    0.0
