          13
 frame:         3053
N     1.0   -0.0   -0.2
N     2.3   -0.1   -0.1
C     3.0    1.0   -0.1
C     4.4    1.0   -0.1
C     5.6    1.1   -0.0
C     7.0    1.2   -0.0
C     7.8    2.3    0.0
H     0.5   -0.9    0.2
H     0.5    0.9    0.1
H     2.5    2.0   -0.1
H     7.5    0.2   -0.1
H     7.3    3.3    0.1
H     8.9    2.2    0.0
