          15
 frame:         1969
C     1.5   -0.4   -0.1
C     1.8    0.7   -0.8
C     3.2    1.2   -0.9
C     3.7    1.9   -2.2
N     3.3    2.7   -1.0
N     4.5    3.1   -0.3
C     4.3    4.2    0.4
H     0.5   -0.8   -0.1
H     2.2   -1.0    0.4
H     1.0    1.3   -1.4
H     3.9    0.7   -0.3
H     3.0    2.0   -3.0
H     4.8    1.8   -2.4
H     5.1    4.5    1.0
H     3.3    4.7    0.4
