          15
 frame:         3051
N     1.0    1.8   -0.0
N     2.3    1.9   -0.1
C     3.0    0.8   -0.1
C     4.5    0.9   -0.1
C     5.2   -0.3    0.0
C     5.1    2.2   -0.2
C     6.3    2.5    0.2
H     0.5    2.5   -0.5
H     0.6    0.9   -0.3
H     2.5   -0.2    0.1
H     4.7   -1.2    0.1
H     6.3   -0.3   -0.1
H     4.5    2.9   -0.8
H     7.0    1.8    0.8
H     6.8    3.5    0.1
