          18
 frame:         4824
C     1.0   -0.0    0.1
C     2.5    0.0   -0.1
N     2.9    0.0   -1.5
C     3.1    1.2    0.8
C     4.5    0.6    1.3
O     4.5   -0.8    0.8
C     3.2   -1.2    0.6
H     0.6   -0.1    1.1
H     0.6   -0.9   -0.5
H     0.5    0.9   -0.4
H     3.9   -0.0   -1.6
H     2.6    0.9   -1.9
H     2.5    1.4    1.6
H     3.2    2.1    0.2
H     5.3    1.1    0.9
H     4.5    0.6    2.4
H     3.2   -2.1   -0.1
H     2.7   -1.4    1.6
