          17
 frame:         1240
C     1.4    0.3    0.6
C     2.7   -0.1   -0.0
C     3.4    0.9   -0.9
C     4.0    0.4    0.4
C     5.0   -0.8    0.3
C     4.3   -1.8   -0.2
C     2.9   -1.6   -0.4
H     1.4    1.4    0.9
H     1.2   -0.3    1.6
H     0.5    0.1   -0.0
H     3.0    1.9   -0.9
H     3.9    0.6   -1.8
H     4.1    1.1    1.3
H     6.0   -0.7    0.6
H     4.8   -2.8   -0.4
H     2.5   -1.8   -1.4
H     2.3   -2.2    0.3
