          14
 frame:         6623
O     2.4   -0.6   -1.3
C     2.3   -0.0    0.0
C     2.9    1.4    0.0
C     2.1    2.5    0.1
N     3.0    3.6    0.1
C     4.3    3.1   -0.0
C     4.2    1.7   -0.1
H     2.2   -1.5   -1.2
H     2.8   -0.6    0.7
H     1.2    0.0    0.3
H     1.1    2.7    0.1
H     2.8    4.6    0.1
H     5.2    3.8   -0.1
H     5.1    1.1   -0.1
