          15
 frame:         6015
C     5.4   -0.9   -1.3
O     5.8    0.2   -0.3
N     4.8    1.2   -0.5
C     5.1    2.2    0.3
C     4.3    3.4    0.3
C     4.0    4.1    1.5
N     4.9    4.7    0.6
H     6.2   -1.7   -1.1
H     5.5   -0.5   -2.3
H     4.4   -1.3   -1.1
H     6.0    2.2    1.0
H     3.5    3.4   -0.5
H     4.4    3.8    2.5
H     3.0    4.6    1.6
H     4.5    5.4    0.0
