          17
 frame:         1270
C     1.1    0.1    0.2
C     2.6   -0.0   -0.1
C     2.9   -1.3   -0.9
C     3.5   -0.7   -2.2
C     3.6    0.7   -2.1
C     3.1    1.2   -0.9
C     3.1    2.5   -0.5
H     0.8    1.0    0.8
H     0.7   -0.8    0.8
H     0.5    0.1   -0.8
H     3.1   -0.1    0.9
H     2.1   -1.9   -1.1
H     3.7   -1.9   -0.4
H     3.8   -1.3   -3.0
H     4.0    1.3   -2.9
H     2.7    2.7    0.5
H     3.5    3.2   -1.1
