          15
 frame:         4262
O     1.8    0.5    1.2
C     2.7    0.1    0.3
C     3.4    1.0   -0.7
C     4.2    0.4    0.5
C     5.0   -0.8    0.1
C     4.2   -1.8   -0.2
C     2.7   -1.4   -0.1
H     1.0    0.8    0.7
H     3.1    2.1   -0.5
H     3.6    0.7   -1.7
H     4.5    1.1    1.3
H     6.0   -0.8    0.1
H     4.5   -2.8   -0.6
H     2.1   -1.6   -1.1
H     2.2   -2.0    0.7
