          14
 frame:          807
C     0.8   -0.3   -0.1
C     2.3   -0.0   -0.1
C     3.0   -0.9   -1.1
O     2.6    1.4   -0.6
C     2.6    2.3    0.4
O     2.5    2.1    1.6
H     0.4    0.4    0.7
H     0.7   -1.3    0.2
H     0.4   -0.1   -1.1
H     2.8   -0.1    0.9
H     2.6   -0.8   -2.2
H     2.9   -1.9   -0.9
H     4.1   -0.7   -1.2
H     2.8    3.3   -0.1
