          13
 frame:         3027
N     1.2   -0.2   -0.5
C     2.5   -0.2   -0.1
N     3.2   -1.2    0.2
C     3.2    1.1   -0.2
C     4.5    1.3    0.1
C     5.1    2.6    0.1
C     5.7    3.6    0.0
H     0.7    0.7   -0.4
H     0.6   -1.0   -0.3
H     2.6   -2.1    0.2
H     2.6    2.0   -0.6
H     5.0    0.5    0.5
H     6.3    4.5    0.0
