          15
 frame:         3359
C     1.0    0.0    0.1
C     2.4    0.0   -0.1
C     3.2   -1.2   -0.1
O     4.2   -1.3   -1.2
C     5.0   -0.1   -1.1
C     4.1    1.1   -1.3
O     3.1    1.2   -0.3
H     0.5    1.0    0.1
H     0.5   -0.9    0.3
H     2.6   -2.1   -0.2
H     3.7   -1.3    0.9
H     5.5   -0.1   -0.1
H     5.7   -0.2   -1.9
H     4.7    2.1   -1.1
H     3.6    1.1   -2.3
