          15
 frame:         3364
C     0.8   -0.0   -0.0
C     2.3   -0.0   -0.1
C     3.0    0.0    1.3
O     2.8   -1.2   -0.8
C     3.4   -0.7   -2.0
C     3.4    0.7   -2.0
O     2.8    1.2   -0.8
H     0.4   -0.0   -1.0
H     0.5    0.9    0.5
H     0.5   -0.9    0.5
H     4.1    0.0    1.1
H     2.8   -0.9    1.8
H     2.8    0.9    1.8
H     3.8   -1.4   -2.7
H     3.8    1.4   -2.7
