          13
 frame:         6976
C     0.9    0.1    0.1
C     2.4   -0.1   -0.1
O     3.2    0.9    0.8
C     4.2    0.1    1.3
S     3.3   -1.5    0.9
O     2.5   -1.9    2.0
O     4.0   -2.4    0.0
H     0.4   -0.6   -0.6
H     0.7    1.1   -0.3
H     0.6   -0.0    1.1
H     2.8   -0.1   -1.1
H     5.1    0.1    0.7
H     4.4    0.3    2.3
