          16
 frame:         6052
N     1.5   -0.3   -0.5
C     2.8    0.0    0.1
C     3.7   -1.1    0.7
C     4.1   -0.4   -0.6
C     5.1    0.7   -0.5
O     4.6    1.5    0.6
C     3.1    1.4    0.6
H     1.2    0.4   -1.1
H     0.8   -0.3    0.3
H     3.2   -2.1    0.6
H     4.2   -0.9    1.6
H     4.0   -1.0   -1.6
H     6.1    0.4   -0.2
H     5.1    1.3   -1.4
H     2.8    1.6    1.6
H     2.7    2.2   -0.1
