          17
 frame:         3583
C     1.9   -0.2    1.4
C     2.3    0.3   -0.1
C     2.9    1.6   -0.0
C     2.3    2.8   -0.3
C     4.4    1.7    0.2
C     5.0    2.0    1.5
O     5.0    0.7    1.1
H     1.4   -1.2    1.3
H     1.2    0.5    1.9
H     2.8   -0.3    2.0
H     1.4    0.3   -0.7
H     2.9   -0.5   -0.5
H     1.2    2.8   -0.5
H     2.8    3.8   -0.3
H     5.0    1.9   -0.7
H     4.3    2.3    2.4
H     6.0    2.5    1.6
