          16
 frame:         6699
O     1.7   -0.8    0.3
C     2.9   -0.4   -0.3
C     3.1    1.1   -0.2
C     4.1    1.7    0.4
C     4.3    3.2    0.5
C     4.9    3.8    1.7
N     5.7    3.7    0.5
H     1.5   -1.7    0.1
H     2.9   -0.7   -1.4
H     3.8   -0.9    0.1
H     2.2    1.7   -0.6
H     4.9    1.1    0.8
H     3.5    3.8    0.0
H     5.3    3.1    2.5
H     4.5    4.8    2.0
H     5.7    4.6   -0.0
