          15
 frame:         4072
C     1.7   -1.1    0.9
C     1.7    0.3    0.5
O     0.7    1.0    0.4
C     3.0    1.1    0.3
O     4.2    0.2    0.1
C     4.3   -0.3   -1.2
C     3.5   -0.2   -2.2
H     2.1   -1.7    0.1
H     0.7   -1.4    1.1
H     2.4   -1.3    1.8
H     3.3    1.6    1.2
H     3.0    1.8   -0.5
H     5.2   -0.9   -1.2
H     2.6    0.4   -2.2
H     3.8   -0.7   -3.1
