          17
 frame:         3904
C     0.3   -0.3    1.4
C     1.6   -0.5    0.6
C     2.1    0.9    0.0
O     3.2    0.7   -0.7
C     3.7    1.9   -1.3
C     4.9    1.6   -2.1
C     5.9    1.5   -2.8
H     0.1   -1.3    1.9
H    -0.5    0.1    0.8
H     0.5    0.4    2.3
H     1.5   -1.2   -0.2
H     2.4   -0.8    1.2
H     2.2    1.6    0.8
H     1.3    1.3   -0.6
H     3.9    2.6   -0.6
H     2.9    2.3   -2.0
H     6.8    1.3   -3.3
