          17
 frame:         3170
C     1.0    0.1    0.4
C     2.5    0.0   -0.1
C     2.9   -1.3   -0.7
C     2.7   -1.1   -2.2
C     3.7   -0.3   -2.9
C     2.5    0.4   -2.4
O     2.7    1.0   -1.1
H     0.7    1.1    0.7
H     0.9   -0.6    1.3
H     0.3   -0.2   -0.4
H     3.1    0.3    0.8
H     2.2   -2.1   -0.3
H     3.9   -1.6   -0.5
H     2.0   -1.8   -2.7
H     4.7   -0.1   -2.4
H     3.8   -0.4   -4.0
H     1.8    0.8   -3.0
