          19
 frame:         4486
O     2.3   -0.1   -1.2
C     2.0    0.5    0.0
C     2.6    1.9    0.1
C     4.1    1.9    0.1
C     4.8    3.3    0.1
C     6.3    3.2    0.1
O     6.9    4.5    0.1
H     1.9   -1.0   -1.2
H     2.3   -0.1    0.9
H     0.9    0.6    0.1
H     2.2    2.4    1.0
H     2.2    2.5   -0.8
H     4.5    1.3   -0.8
H     4.5    1.3    0.9
H     4.4    3.8    1.0
H     4.4    3.9   -0.8
H     6.6    2.7   -0.8
H     6.7    2.7    0.9
H     6.6    5.0   -0.6
