          14
 frame:         5767
C     2.3   -0.7   -1.3
N     2.9   -0.4   -0.0
C     3.5    0.9    0.0
C     5.0    0.9   -0.6
O     5.6   -0.1   -0.9
C     5.7    2.2   -0.7
O     5.1    3.3   -0.4
H     1.8   -1.7   -1.3
H     3.0   -0.7   -2.1
H     1.5    0.0   -1.6
H     3.5   -1.1    0.3
H     3.7    1.2    1.1
H     3.0    1.6   -0.4
H     6.7    2.2   -1.1
