          14
 frame:         6811
O     1.3   -0.7   -0.5
C     1.8    0.0   -1.5
O     1.5   -0.1   -2.6
C     2.8    1.1   -1.0
N     3.2    0.9    0.3
C     4.6    0.4    0.5
C     4.2    1.8    0.9
H     1.8   -0.3    0.4
H     2.3    2.1   -1.1
H     3.6    1.1   -1.8
H     5.2    0.2   -0.3
H     4.7   -0.4    1.3
H     4.1    2.1    1.9
H     4.6    2.6    0.2
