          15
 frame:         5589
C     1.0    0.2   -0.3
N     2.5    0.4   -0.1
C     3.3   -0.6   -0.7
C     3.3    0.8   -1.2
C     4.4    1.8   -1.0
N     4.6    2.0    0.3
O     5.0    2.3   -1.9
H     0.5    1.2   -0.2
H     0.6   -0.5    0.5
H     0.8   -0.2   -1.3
H     2.9   -1.4   -1.3
H     4.2   -0.9   -0.1
H     2.8    0.9   -2.2
H     4.0    1.7    1.0
H     5.3    2.8    0.6
