          16
 frame:          798
C     0.8    1.8   -1.3
C     0.4    0.6   -0.5
C     1.6   -0.0    0.2
O     1.2   -1.2    0.9
C     2.1   -1.9    1.6
C     3.4   -1.6    1.8
H    -0.1    2.2   -1.8
H     1.6    1.6   -2.0
H     1.2    2.6   -0.6
H     0.0   -0.2   -1.2
H    -0.4    0.8    0.2
H     2.0    0.7    0.9
H     2.4   -0.3   -0.5
H     1.7   -2.8    2.1
H     3.9   -0.7    1.3
H     4.0   -2.2    2.4
