          14
 frame:         6410
N     1.7   -1.7    0.3
C     2.2   -0.6    0.9
O     1.7   -0.2    2.0
C     3.3    0.1    0.2
C     4.7   -0.4    0.6
C     5.1   -1.7   -0.1
O     4.4   -2.3   -0.9
H     2.3   -2.1   -0.5
H     1.1   -2.3    0.8
H     3.2    1.2    0.6
H     3.2    0.1   -0.9
H     4.8   -0.6    1.7
H     5.5    0.3    0.4
H     6.1   -2.1    0.2
