          17
 frame:         3937
C     0.8   -0.4    0.1
C     2.3   -0.1    0.1
C     2.7    1.4    0.0
O     4.1    1.5   -0.0
C     4.5    2.9   -0.1
C     6.0    2.9   -0.1
O     6.6    4.0   -0.1
H     0.6   -1.4    0.2
H     0.3    0.0   -0.8
H     0.3    0.1    1.0
H     2.8   -0.6   -0.8
H     2.8   -0.5    1.0
H     2.2    1.9    0.9
H     2.2    1.8   -0.9
H     4.1    3.5    0.8
H     4.1    3.4   -1.0
H     6.5    1.9   -0.0
