          17
 frame:         5774
C     1.2    0.7    1.4
N     1.6    2.0    0.9
C     2.9    2.1    0.4
C     3.2    3.5   -0.2
O     2.1    4.5   -0.1
N     3.8    1.2    0.5
C     5.1    1.4    0.0
H     0.1    0.8    1.8
H     1.8    0.3    2.2
H     1.2   -0.0    0.6
H     1.0    2.7    0.6
H     3.4    3.4   -1.2
H     4.1    3.9    0.3
H     2.1    4.8    0.8
H     5.7    0.5    0.1
H     5.6    2.2    0.5
H     5.1    1.6   -1.1
