          13
 frame:         1593
C     2.1    0.1    0.9
C     2.4   -0.0   -0.6
C     2.5    1.5   -0.7
C     2.7    2.8   -1.1
C     2.5    3.6    0.1
N     2.3    2.8    1.2
N     2.3    1.6    0.7
H     2.9   -0.3    1.6
H     1.1   -0.1    1.2
H     1.6   -0.4   -1.2
H     3.4   -0.6   -0.9
H     2.9    3.2   -2.1
H     2.6    4.7    0.2
