          17
 frame:         5950
C     4.3   -0.2   -2.1
O     4.4   -0.6   -0.7
C     4.3    0.4    0.2
C     5.5    1.4    0.3
C     6.8    0.8    0.6
N     5.2    2.6    0.1
N     6.2    3.5    0.2
H     4.4   -1.1   -2.7
H     5.1    0.5   -2.3
H     3.4    0.3   -2.3
H     4.2   -0.1    1.2
H     3.4    1.0    0.0
H     6.8   -0.3    0.6
H     7.2    1.2    1.5
H     7.5    1.1   -0.2
H     6.0    4.4   -0.3
H     7.2    3.2    0.0
