          13
 frame:         5629
C     1.0    0.1   -0.1
N     2.4   -0.1    0.5
O     3.2    1.1    0.1
C     4.4    0.6   -0.1
C     4.5   -0.7   -0.1
C     3.1   -1.2    0.2
N     2.8   -2.5    0.2
H     0.6    1.0    0.3
H     0.4   -0.8    0.2
H     1.1    0.1   -1.2
H     5.2    1.4   -0.3
H     5.3   -1.4   -0.3
H     1.8   -2.6    0.5
