          16
 frame:          529
C     1.1   -0.3   -0.9
C     2.2   -0.2    0.2
N     3.1    0.9   -0.1
N     4.2    0.9    0.7
C     4.8    2.1    1.0
C     6.0    2.2    1.8
H     0.5   -1.2   -0.7
H     1.6   -0.4   -1.9
H     0.5    0.6   -0.8
H     2.9   -1.1    0.1
H     1.8   -0.2    1.2
H     2.6    1.8   -0.1
H     4.3    3.0    0.6
H     6.4    1.2    2.0
H     5.9    2.8    2.7
H     6.8    2.7    1.2
