          17
 frame:         2226
C     2.6   -0.7    1.5
C     3.2   -0.3    0.2
C     3.2    1.2   -0.1
C     4.2    2.0   -0.2
C     4.2    3.5   -0.5
N     2.9    4.1   -0.2
N     5.1    4.2   -1.0
H     2.6   -1.8    1.6
H     1.5   -0.4    1.5
H     3.0   -0.2    2.4
H     2.8   -0.8   -0.6
H     4.3   -0.6    0.2
H     2.2    1.6   -0.1
H     5.2    1.6   -0.2
H     2.4    3.8    0.6
H     3.0    5.1   -0.3
H     5.9    3.6   -1.2
