          12
 frame:          125
C     1.0   -0.1   -0.1
N     2.4   -0.0    0.1
C     2.9    1.4    0.1
C     4.4    1.4   -0.0
C     5.6    1.4   -0.1
H     0.6   -1.1   -0.1
H     0.6    0.5   -0.9
H     0.5    0.4    0.8
H     2.9   -0.5   -0.7
H     2.6    1.9    1.0
H     2.5    2.0   -0.8
H     6.7    1.5   -0.1
