          17
 frame:         3623
C     3.1   -1.7   -1.2
C     2.9   -0.9   -0.0
C     2.2   -1.4    1.1
C     3.3    0.6   -0.1
C     4.8    0.8   -0.1
C     5.3    2.2   -0.2
O     4.6    3.2   -0.2
H     2.7   -1.3   -2.1
H     2.7   -2.7   -1.1
H     4.2   -1.8   -1.4
H     1.9   -2.4    1.1
H     2.0   -0.7    1.9
H     2.9    1.1    0.8
H     2.9    1.1   -1.0
H     5.3    0.2   -1.0
H     5.3    0.3    0.7
H     6.4    2.3   -0.2
