          20
 frame:         2260
C     1.4   -0.1    0.2
C     2.7    0.1   -0.6
C     2.7   -0.6   -1.9
C     3.4   -1.6   -2.2
N     2.9    1.6   -0.8
C     2.9    2.4    0.5
C     4.2    1.9   -1.4
H     1.4    0.2    1.2
H     1.2   -1.2    0.2
H     0.5    0.4   -0.4
H     3.5   -0.3    0.1
H     2.0   -0.1   -2.6
H     4.2   -2.0   -1.5
H     3.3   -2.1   -3.2
H     1.8    2.3    0.9
H     3.1    3.4    0.3
H     3.6    2.0    1.2
H     4.3    1.3   -2.4
H     5.1    1.5   -0.8
H     4.3    2.9   -1.6
