          18
 frame:         1663
C     1.0    0.1    0.5
C     2.5    0.0   -0.0
C     2.9   -1.3   -0.7
C     2.6   -1.1   -2.2
C     3.8   -0.4   -2.9
C     2.6    0.4   -2.4
N     2.7    1.1   -1.1
H     0.8    1.1    0.8
H     0.9   -0.7    1.2
H     0.4   -0.2   -0.4
H     3.2    0.2    0.8
H     2.2   -2.1   -0.3
H     3.9   -1.6   -0.5
H     2.0   -1.7   -2.8
H     4.7   -0.3   -2.4
H     3.8   -0.5   -4.0
H     1.9    0.9   -3.1
H     3.7    1.5   -1.0
