          18
 frame:         1648
C     0.8    0.0   -0.5
C     2.2    0.0   -0.0
C     3.2   -0.8   -0.8
C     3.3    0.8   -0.9
C     2.5    0.1    1.4
C     1.6    0.7    2.4
N     1.6   -0.8    2.3
H     0.7   -0.1   -1.6
H     0.3    1.0   -0.3
H     0.2   -0.8   -0.0
H     2.9   -1.3   -1.7
H     4.1   -1.3   -0.3
H     4.1    1.3   -0.4
H     2.9    1.2   -1.8
H     3.5    0.1    1.7
H     0.6    1.2    2.1
H     2.0    1.2    3.3
H     2.1   -1.1    3.1
