          13
 frame:         4414
O     1.0   -0.1    0.2
C     2.2   -0.0    0.0
C     2.9    1.2    0.0
C     4.3    1.4   -0.2
C     4.7    2.8   -0.1
O     3.5    3.5    0.1
C     2.4    2.6    0.2
H     2.8   -0.9   -0.2
H     5.0    0.5   -0.4
H     5.4    3.0    0.6
H     5.1    3.1   -1.1
H     1.6    2.9   -0.5
H     1.9    2.7    1.3
