          17
 frame:         2208
C     3.2   -1.6   -1.0
C     2.9   -0.6    0.1
C     2.2   -1.0    1.2
C     3.4    0.8   -0.0
C     4.9    0.9    0.1
N     5.6    1.4   -0.9
N     6.9    1.5   -0.7
H     2.8   -1.2   -1.9
H     2.9   -2.6   -0.8
H     4.3   -1.6   -1.1
H     1.8   -2.0    1.3
H     1.9   -0.3    2.0
H     2.9    1.4    0.8
H     3.1    1.2   -1.0
H     5.4    0.6    1.0
H     7.4    1.4   -1.6
H     7.3    0.9   -0.0
