          18
 frame:         5887
C     1.6   -0.5   -1.1
O     2.1    0.2    0.1
C     3.2    0.9   -0.2
C     3.0    2.3   -0.9
N     3.1    2.9    0.5
C     3.9    4.2    0.6
C     3.7    1.7    1.0
H     0.7   -1.0   -0.8
H     2.3   -1.2   -1.5
H     1.3    0.2   -1.9
H     4.0    0.2   -0.7
H     2.1    2.5   -1.4
H     3.9    2.5   -1.6
H     4.0    4.4    1.6
H     3.4    5.0    0.0
H     5.0    4.1    0.2
H     4.8    1.7    1.1
H     3.3    1.4    2.0
