          18
 frame:         4997
C     2.4   -0.6   -1.5
C     2.5   -0.1   -0.1
C     3.4    1.1    0.0
O     2.9    2.3   -0.7
C     3.2    3.2    0.5
C     3.4    1.9    1.4
N     4.6    2.0    2.2
H     1.7   -1.4   -1.6
H     3.4   -0.9   -1.9
H     2.0    0.2   -2.2
H     2.9   -0.9    0.6
H     1.5    0.2    0.3
H     4.4    0.9   -0.3
H     4.1    3.8    0.3
H     2.4    3.9    0.7
H     2.5    1.7    2.0
H     5.5    2.0    1.7
H     4.6    1.1    2.8
