          12
 frame:         4944
C     2.8   -1.1    0.4
C     2.2    0.1    0.2
C     2.9    1.3    0.1
C     2.5    2.6   -0.2
N     3.6    3.5   -0.2
C     4.6    2.7    0.1
O     4.3    1.4    0.2
H     2.2   -2.0    0.5
H     3.9   -1.2    0.6
H     1.2    0.1    0.0
H     1.5    3.0   -0.4
H     5.7    3.0    0.2
