          17
 frame:         3857
C     1.2   -0.2   -0.6
C     2.7   -0.2   -0.2
C     3.1    1.0    0.6
O     2.4    1.2    1.8
C     4.6    1.0    0.8
C     5.2    1.8    1.9
O     5.0    0.3    2.1
H     0.9   -1.1   -1.1
H     1.0    0.6   -1.3
H     0.6   -0.1    0.3
H     3.3   -0.3   -1.1
H     2.9   -1.1    0.4
H     2.9    1.9   -0.1
H     2.8    0.6    2.4
H     5.2    0.7   -0.0
H     4.6    2.4    2.5
H     6.3    2.0    1.9
