          16
 frame:         6133
N     0.8    0.1    0.2
C     2.3    0.1    0.0
C     3.1    1.0    0.9
O     4.0   -0.1    1.3
C     3.1   -1.0    0.8
C     3.7   -2.1   -0.0
C     5.0   -2.2   -0.2
H     0.4   -0.6   -0.4
H     0.5    1.0   -0.1
H     2.6    0.1   -1.1
H     2.5    1.5    1.7
H     3.7    1.8    0.4
H     2.4   -1.5    1.6
H     3.1   -2.9   -0.4
H     5.7   -1.4    0.2
H     5.5   -3.0   -0.8
