          16
 frame:         6180
N     3.0   -1.0   -0.6
C     2.4    0.2    0.1
C     3.5    1.3    0.0
C     3.7    1.9   -1.4
C     3.0    3.2   -1.4
C     2.7    3.5   -0.1
O     3.0    2.5    0.8
H     2.2   -1.7   -0.7
H     3.7   -1.4    0.0
H     2.2    0.1    1.2
H     1.5    0.6   -0.4
H     4.4    1.0    0.5
H     3.3    1.2   -2.1
H     4.8    2.0   -1.6
H     2.9    3.9   -2.2
H     2.2    4.3    0.3
