          16
 frame:         1734
C     0.9   -0.0    0.1
C     2.4    0.1    0.0
C     3.2    1.1    0.9
C     4.2   -0.0    1.2
N     3.2   -1.0    0.8
C     5.4    0.0    0.4
C     6.5   -0.0   -0.2
H     0.6   -0.9   -0.4
H     0.5    0.8   -0.4
H     0.6   -0.1    1.1
H     2.8    0.1   -1.0
H     2.6    1.4    1.8
H     3.6    2.0    0.4
H     4.5   -0.1    2.3
H     3.6   -1.8    0.2
H     7.3   -0.0   -0.8
