          17
 frame:         3317
C     0.8    0.1    0.1
C     2.4   -0.1    0.0
C     3.2    0.9    0.9
O     3.8   -0.2    1.6
C     3.0   -1.2    0.9
C     3.9   -2.2    0.1
O     4.6   -3.0    1.1
H     0.3   -0.7   -0.4
H     0.5    1.1   -0.4
H     0.5    0.1    1.1
H     2.7   -0.1   -1.0
H     2.6    1.5    1.6
H     4.0    1.5    0.4
H     2.3   -1.7    1.6
H     4.5   -1.7   -0.6
H     3.2   -2.9   -0.4
H     5.1   -2.3    1.6
