          13
 frame:         6753
O     2.8   -0.6   -0.6
C     2.3    0.3    0.2
C     3.0    1.5    0.6
N     4.4    1.5    0.3
C     5.0    2.8    0.1
C     4.4    3.7   -0.9
N     3.8    4.3   -1.7
H     1.2    0.1    0.5
H     2.8    1.6    1.7
H     2.4    2.4    0.1
H     4.5    0.9   -0.5
H     6.1    2.6   -0.1
H     5.0    3.3    1.1
