          17
 frame:         5188
C     0.1   -0.9    0.3
C     1.5   -1.4    0.2
C     1.6   -2.9   -0.2
N     2.2   -0.5   -0.7
N     3.6   -0.7   -0.6
C     4.4    0.2    0.2
O     3.9    1.0    1.0
H     0.0    0.1    0.7
H    -0.5   -1.6    1.0
H    -0.4   -1.0   -0.7
H     2.0   -1.3    1.2
H     1.2   -3.0   -1.2
H     1.1   -3.5    0.5
H     2.7   -3.2   -0.3
H     2.0    0.5   -0.4
H     4.1   -1.1   -1.4
H     5.5    0.0   -0.0
