          20
 frame:         1933
C     2.3   -0.5   -1.6
C     2.5   -0.0   -0.1
C     3.2    1.3   -0.0
C     2.6    2.6   -0.6
C     3.2    3.4    0.6
C     3.4    2.0    1.4
N     4.5    1.9    2.2
H     1.8   -1.5   -1.6
H     3.3   -0.7   -2.0
H     1.8    0.2   -2.2
H     3.0   -0.8    0.5
H     1.5    0.1    0.3
H     4.2    1.2   -0.5
H     1.5    2.6   -0.5
H     2.8    3.0   -1.6
H     4.2    3.8    0.3
H     2.7    4.2    1.1
H     2.5    1.8    1.9
H     5.4    1.9    1.7
H     4.5    0.9    2.7
