          15
 frame:         5421
C     3.1    0.2   -2.8
C     3.6    1.0   -1.6
N     4.9    1.3   -1.6
N     5.3    2.0   -0.4
C     6.5    2.8   -0.6
C     6.2    4.1   -1.2
O     6.6    5.2   -0.8
H     2.3    0.8   -3.3
H     2.7   -0.8   -2.5
H     3.9    0.1   -3.5
H     2.9    1.2   -0.8
H     4.6    2.4    0.1
H     7.2    2.2   -1.3
H     7.0    2.9    0.4
H     5.5    4.1   -2.1
