          21
 frame:         1398
C     1.1    0.3   -1.7
C     2.5    0.6   -1.4
C     3.0    1.4   -0.3
C     4.4    1.6   -0.1
C     4.8    3.1   -0.0
C     6.2    3.3    0.5
C     4.5    3.8   -1.4
H     0.8    0.7   -2.7
H     0.4    0.8   -0.9
H     0.9   -0.8   -1.7
H     3.2    0.2   -2.1
H     2.2    1.8    0.3
H     5.0    1.1   -0.8
H     4.6    1.2    0.9
H     4.1    3.6    0.7
H     6.9    2.9   -0.2
H     6.3    2.9    1.5
H     6.5    4.4    0.5
H     5.2    3.4   -2.1
H     4.8    4.9   -1.3
H     3.5    3.7   -1.7
