          13
 frame:         1047
C     1.1   -0.1    0.3
C     2.6   -0.2    0.2
O     3.2   -1.3    0.1
N     3.3    1.0    0.0
C     4.7    1.0   -0.1
C     5.4    2.2   -0.2
H     0.7    0.9    0.1
H     0.8   -0.3    1.4
H     0.6   -0.8   -0.3
H     2.8    1.9    0.1
H     5.2    0.1   -0.1
H     4.9    3.2   -0.2
H     6.5    2.1   -0.3
