          14
 frame:         5957
C     2.0    1.3    2.6
O     1.8    2.2    1.5
C     2.8    2.2    0.6
C     2.6    3.1   -0.6
C     1.5    3.8   -0.7
N     3.9    1.5    0.8
O     4.8    1.7   -0.2
H     1.1    1.4    3.2
H     2.9    1.6    3.2
H     2.1    0.3    2.3
H     3.4    3.2   -1.3
H     0.6    3.8   -0.0
H     1.4    4.5   -1.6
H     5.5    1.1    0.1
