          14
 frame:         6737
O     2.6   -0.4   -1.6
C     2.1    0.1   -0.3
C     2.7    1.4    0.0
C     1.9    2.5    0.2
N     4.1    1.6    0.1
C     5.0    0.6   -0.1
O     6.2    0.8    0.1
H     2.2   -1.3   -1.7
H     2.5   -0.7    0.5
H     1.0    0.1   -0.2
H     0.8    2.4    0.1
H     2.2    3.5    0.5
H     4.4    2.5    0.3
H     4.7   -0.4   -0.4
