          17
 frame:         1251
C     0.9   -0.0    0.1
C     2.4   -0.0   -0.0
C     3.2    1.1    0.8
C     4.2   -0.0    1.2
C     3.2   -1.1    0.8
C     2.8    0.0   -1.4
C     3.1    0.0   -2.6
H     0.6   -0.0    1.2
H     0.4   -0.9   -0.3
H     0.4    0.9   -0.3
H     2.6    1.4    1.7
H     3.5    2.0    0.3
H     5.1    0.0    0.6
H     4.6   -0.0    2.3
H     3.6   -2.0    0.2
H     2.6   -1.4    1.6
H     3.4    0.1   -3.6
