          16
 frame:         6228
N     1.3   -0.4    0.9
C     2.0    0.3   -0.2
C     3.2    1.1    0.3
O     3.8    2.0   -0.6
C     3.0    2.6    0.5
C     3.8    3.3    1.5
C     3.3    4.5    2.1
H     0.7   -1.1    0.5
H     0.8    0.3    1.4
H     1.4    0.9   -0.9
H     2.5   -0.5   -0.9
H     3.9    0.6    1.0
H     2.1    3.0    0.2
H     4.8    2.9    1.8
H     2.4    4.9    1.8
H     3.9    5.0    2.8
