          18
 frame:         5350
C     1.1   -0.7   -0.1
C     2.6   -0.5    0.3
N     3.1    0.9   -0.1
C     4.5    1.1    0.2
C     5.0    2.4   -0.3
C     4.5    2.9   -1.6
O     6.0    3.0    0.2
H     0.8   -1.7    0.2
H     1.0   -0.5   -1.1
H     0.5    0.1    0.5
H     3.2   -1.2   -0.3
H     2.8   -0.7    1.4
H     2.5    1.6    0.3
H     5.1    0.3   -0.2
H     4.7    1.1    1.3
H     4.4    2.1   -2.4
H     5.1    3.7   -2.0
H     3.4    3.3   -1.5
