          16
 frame:          395
C     1.0   -0.0    0.2
C     2.5    0.0   -0.1
N     2.6   -0.0   -1.6
C     3.3    1.1    0.7
N     3.6   -0.0    1.7
C     3.3   -1.1    0.6
H     0.8   -0.0    1.3
H     0.5   -0.9   -0.2
H     0.5    0.9   -0.2
H     3.6    0.1   -1.9
H     2.0    0.7   -2.0
H     2.7    1.9    1.2
H     4.1    1.4    0.2
H     4.5   -0.1    2.0
H     4.2   -1.4    0.1
H     2.7   -1.9    1.0
