          16
 frame:         4932
C     3.3   -1.2   -0.5
C     2.5    0.0    0.1
C     3.4    1.3   -0.0
C     3.6    1.9   -1.4
C     3.0    3.3   -1.2
N     2.5    3.5   -0.1
O     2.7    2.4    0.7
H     2.6   -2.1   -0.4
H     4.2   -1.4    0.0
H     3.5   -1.1   -1.6
H     2.3   -0.1    1.1
H     1.6    0.2   -0.5
H     4.3    1.2    0.5
H     3.0    1.3   -2.2
H     4.6    1.9   -1.7
H     3.0    4.1   -2.0
