          17
 frame:         1242
C     1.0   -0.0   -0.5
C     2.3   -0.0    0.3
C     3.5    0.8   -0.1
C     3.7    1.2   -1.6
C     3.7   -0.1   -2.4
C     3.7   -1.1   -1.6
C     3.5   -0.8   -0.1
H     0.4    0.9   -0.3
H     0.4   -0.9   -0.2
H     1.2   -0.1   -1.6
H     2.1   -0.0    1.4
H     4.0    1.3    0.7
H     4.6    1.8   -1.7
H     2.9    1.9   -1.9
H     3.8   -0.1   -3.4
H     3.7   -2.2   -1.9
H     4.1   -1.4    0.7
