          15
 frame:         2940
N     3.0   -0.9   -2.3
C     3.2   -0.5   -1.2
C     3.5    0.1    0.1
C     4.5    1.3   -0.0
C     3.9    2.6   -0.6
N     3.5    3.0    0.8
C     4.5    2.1    1.3
H     3.9   -0.7    0.7
H     2.5    0.5    0.5
H     5.4    0.9   -0.5
H     3.0    2.5   -1.3
H     4.6    3.2   -1.1
H     3.7    4.0    1.0
H     5.6    2.5    1.4
H     4.2    1.6    2.2
