          13
 frame:         4427
O     1.7   -0.3   -1.2
C     2.0    0.3   -0.1
C     3.2    1.3   -0.1
O     3.7    1.3    1.3
C     3.6    2.6    1.8
C     2.9    3.4    0.7
C     2.7    2.7   -0.3
H     1.5    0.1    0.8
H     4.0    0.9   -0.8
H     4.6    3.0    2.0
H     3.0    2.6    2.7
H     2.7    4.5    0.8
H     2.3    3.0   -1.3
