          13
 frame:         6864
O     1.0    2.4   -0.1
N     2.4    2.5   -0.1
C     2.9    1.4    0.0
C     4.4    1.2    0.1
C     5.2    2.5   -0.1
C     6.6    2.4   -0.0
N     7.8    2.2   -0.0
H     0.7    3.4   -0.2
H     2.3    0.4    0.1
H     4.7    0.5   -0.8
H     4.7    0.7    1.0
H     4.9    3.2    0.7
H     4.9    3.0   -1.0
