          15
 frame:         4365
O     0.8    0.1    0.3
C     2.2    0.1    0.1
C     3.0    1.0    0.9
O     4.0   -0.0    1.3
C     3.0   -1.1    0.8
C     3.7   -2.1   -0.0
C     5.0   -2.2   -0.4
H     0.3   -0.3   -0.4
H     2.4    0.1   -1.0
H     2.5    1.4    1.8
H     3.5    1.9    0.4
H     2.5   -1.5    1.6
H     3.0   -3.0   -0.3
H     5.6   -1.4   -0.1
H     5.4   -3.0   -0.9
