          15
 frame:         4220
C     1.0    0.0   -0.3
O     2.4    0.1   -0.4
C     2.9    1.2    0.3
C     4.3    1.3    0.2
C     5.5    1.4    0.2
C     7.0    1.6    0.1
O     7.4    2.4   -1.0
H     0.7   -0.9   -0.9
H     0.5    0.9   -0.8
H     0.7   -0.1    0.7
H     2.6    1.1    1.4
H     2.4    2.2   -0.1
H     7.4    0.5   -0.0
H     7.4    2.0    1.0
H     6.9    2.1   -1.8
