          15
 frame:         5840
C     2.2   -0.9    0.3
N     3.5   -0.3   -0.1
N     3.7    1.0    0.2
C     4.9    1.4    0.1
C     5.3    2.8    0.4
C     4.2    3.7    0.9
O     6.4    3.2    0.3
H     2.0   -1.7   -0.4
H     1.4   -0.1    0.1
H     2.2   -1.2    1.3
H     4.2   -0.9   -0.3
H     5.8    0.8   -0.2
H     3.8    3.5    1.9
H     3.3    3.6    0.2
H     4.5    4.8    0.9
