          12
 frame:          494
C     0.9   -0.3   -0.1
C     2.2   -0.1   -0.1
C     2.8    1.2   -0.1
N     4.1    1.3   -0.1
N     4.5    2.7   -0.1
C     5.8    2.8   -0.1
H     0.5   -1.4   -0.1
H     0.2    0.5   -0.2
H     2.9   -1.0    0.0
H     2.2    2.0   -0.1
H     6.1    3.9   -0.1
H     6.5    2.0    0.0
