          17
 frame:         4031
C     2.5   -1.1    0.8
C     2.0    0.4    0.6
O     0.8    0.6    0.7
C     3.1    1.5    0.3
C     3.1    1.7   -1.2
C     2.7    2.8    1.1
O     4.4    1.1    0.7
H     3.3   -1.3    0.1
H     1.7   -1.8    0.7
H     3.0   -1.1    1.8
H     3.4    0.8   -1.7
H     3.8    2.5   -1.4
H     2.1    2.0   -1.6
H     2.7    2.6    2.2
H     1.7    3.1    0.8
H     3.4    3.6    0.8
H     4.5    1.2    1.7
