          12
 frame:         4554
C     0.8   -0.1    0.1
C     2.3    0.4   -0.1
C     1.1    1.3   -0.3
O     0.9    2.4    0.7
C     0.5    3.4   -0.1
N     0.3    3.2   -1.3
O     0.8    1.9   -1.6
H     0.5   -0.3    1.1
H     0.4   -0.7   -0.7
H     2.8    0.1   -1.1
H     2.9    0.5    0.7
H     0.2    4.3    0.4
