          19
 frame:         1973
C     3.0   -1.2   -0.6
C     2.4    0.1    0.0
C     3.4    1.2    0.1
C     3.5    2.3   -1.0
N     2.7    2.3   -2.2
C     2.9    2.7    0.3
N     3.5    3.7    1.1
H     2.3   -2.0   -0.7
H     3.9   -1.5   -0.1
H     3.3   -0.9   -1.7
H     2.1   -0.2    1.1
H     1.5    0.4   -0.5
H     4.3    1.0    0.6
H     4.5    2.7   -1.2
H     1.7    2.2   -2.0
H     2.9    1.5   -2.8
H     1.8    2.8    0.3
H     4.5    3.8    0.9
H     3.4    3.4    2.1
