          14
 frame:         6713
O     1.0    0.0   -0.2
C     2.4   -0.0   -0.1
C     2.9    1.4    0.0
C     2.4    2.1    1.3
C     1.6    3.2    1.2
C     4.4    1.4    0.0
N     5.6    1.4   -0.0
H     0.7   -0.9   -0.3
H     2.9   -0.5   -0.9
H     2.7   -0.6    0.9
H     2.6    1.9   -0.9
H     2.7    1.7    2.2
H     1.3    3.6    0.3
H     1.3    3.7    2.1
