          17
 frame:         2785
C     1.1    0.7   -0.7
N     2.4    0.5   -0.7
N     3.1    1.6   -0.5
C     4.5    1.3    0.0
C     5.4    2.5   -0.0
C     5.3    3.5    1.1
C     6.5    2.6    0.9
H     0.5   -0.2   -0.9
H     0.6    1.6   -0.4
H     2.7    2.4   -0.0
H     4.9    0.5   -0.6
H     4.5    0.9    1.1
H     5.5    2.9   -1.1
H     4.7    3.3    1.9
H     5.4    4.6    0.8
H     7.5    3.1    0.5
H     6.7    1.8    1.6
