          17
 frame:         4229
C     3.9   -2.5    0.9
O     4.9   -1.5    0.6
C     4.3   -0.2    0.4
C     5.3    0.8    0.1
C     6.6    0.6   -0.0
O     4.7    2.0   -0.1
C     5.5    3.1   -0.4
H     4.4   -3.4    1.0
H     3.2   -2.6    0.0
H     3.3   -2.2    1.8
H     3.7    0.1    1.3
H     3.5   -0.2   -0.4
H     7.0   -0.5    0.1
H     7.4    1.4   -0.2
H     4.9    4.0   -0.5
H     6.1    3.0   -1.3
H     6.3    3.3    0.4
