          16
 frame:         1662
C     1.1    0.2   -0.0
C     2.6   -0.1   -0.0
C     3.3   -1.1   -0.5
C     4.8   -0.7   -0.1
C     4.8    0.8   -0.6
C     3.7    0.8    0.5
N     4.5   -0.2    1.3
H     0.6   -0.6   -0.5
H     0.9    1.1   -0.6
H     0.8    0.3    1.0
H     3.0   -2.1   -0.9
H     5.6   -1.4   -0.3
H     4.5    1.0   -1.6
H     5.7    1.3   -0.3
H     3.4    1.7    1.1
H     5.4    0.2    1.6
