          12
 frame:          646
C     0.4    1.4    0.5
C     0.8    0.4   -0.4
O     0.9   -1.0    0.0
C    -0.4   -1.3    0.3
C    -1.3   -0.4    0.0
C    -0.6    0.8   -0.5
H     0.7    2.4    0.3
H     0.3    1.2    1.6
H     1.6    0.6   -1.2
H    -0.5   -2.3    0.7
H    -2.4   -0.5    0.1
H    -1.0    1.4   -1.2
