          19
 frame:         1881
C     1.0   -0.0   -0.2
C     2.5    0.0   -0.0
N     3.0   -0.1    1.3
C     3.4   -0.6   -1.1
C     3.4    0.9   -0.9
C     2.8    1.7   -2.0
N     4.6    1.5   -0.4
H     0.7    0.1   -1.2
H     0.5    0.8    0.4
H     0.6   -1.0    0.2
H     2.8   -1.1    1.7
H     2.5    0.5    2.0
H     2.9   -1.1   -2.0
H     4.3   -1.2   -0.7
H     2.0    1.2   -2.5
H     3.6    1.9   -2.8
H     2.5    2.7   -1.6
H     4.9    1.0    0.5
H     4.5    2.4   -0.1
