          12
 frame:           17
C     1.0    0.0   -0.1
C     2.5   -0.1    0.0
C     3.3   -0.7   -1.1
C     3.4    0.8   -0.9
H     0.6    0.8    0.5
H     0.5   -0.9    0.3
H     0.7    0.1   -1.1
H     2.9   -0.2    1.0
H     2.8   -1.1   -1.9
H     4.2   -1.3   -0.8
H     4.3    1.2   -0.5
H     2.9    1.4   -1.7
