          19
 frame:         2409
C     1.1   -0.5    0.8
C     2.5   -0.7    0.5
C     3.3    0.6    0.1
N     4.7    0.4   -0.2
C     5.3    1.4   -1.1
N     5.4   -0.2    0.8
C     6.7   -0.1    0.8
H     0.6   -1.4    1.1
H     0.5   -0.0   -0.0
H     1.0    0.2    1.7
H     2.6   -1.4   -0.4
H     3.0   -1.2    1.3
H     3.2    1.3    0.9
H     2.8    1.0   -0.8
H     4.6    1.8   -1.8
H     6.2    0.9   -1.6
H     5.8    2.2   -0.5
H     7.2   -0.7    1.7
H     7.3    0.4    0.2
