          16
 frame:         4766
C     1.0    0.0    0.3
C     2.5    0.1   -0.0
C     3.3   -0.9   -0.4
O     4.6   -0.6   -0.6
C     4.7    0.8   -0.1
C     3.3    1.3   -0.1
N     2.8    2.2   -1.1
H     0.6   -1.0    0.1
H     0.5    0.7   -0.4
H     0.8    0.3    1.3
H     3.0   -2.0   -0.6
H     5.4    1.3   -0.9
H     5.2    0.7    0.8
H     3.2    1.9    0.9
H     2.9    1.7   -2.0
H     3.4    3.1   -1.2
