          14
 frame:          656
C     0.7    1.2   -0.2
C    -0.7    1.2    0.2
O    -1.4    0.0   -0.2
C    -0.7   -1.2    0.2
C     0.7   -1.2   -0.3
O     1.4   -0.0    0.2
H     0.7    1.2   -1.4
H     1.3    2.0    0.2
H    -1.3    2.0   -0.1
H    -0.8    1.2    1.4
H    -0.8   -1.2    1.4
H    -1.3   -2.0   -0.2
H     1.2   -2.0    0.1
H     0.7   -1.2   -1.4
