          14
 frame:          118
C     0.9   -0.1   -0.1
C     2.4    0.0    0.0
N     3.1   -0.8   -1.0
C     2.9    1.5   -0.1
C     3.4    2.1    1.0
H     0.4    0.5    0.8
H     0.6   -1.1   -0.0
H     0.5    0.4   -1.0
H     2.7   -0.4    1.0
H     2.9   -0.4   -2.0
H     2.8   -1.7   -1.0
H     2.7    2.0   -1.0
H     3.6    1.7    1.9
H     3.7    3.2    0.8
