          15
 frame:         5970
C     3.2   -1.1   -0.8
O     2.5   -0.1   -0.1
C     3.1    1.1    0.1
C     4.4    1.4   -0.2
N     5.0    2.6    0.1
C     6.3    3.0   -0.3
N     7.2    2.4   -0.9
H     2.6   -1.9   -0.9
H     4.1   -1.4   -0.2
H     3.6   -0.8   -1.8
H     2.5    1.8    0.6
H     5.1    0.7   -0.7
H     4.5    3.3    0.6
H     6.5    4.0    0.1
H     6.9    1.4   -1.3
