          13
 frame:         3124
C     0.4    1.4    0.5
O     1.3    0.3    0.3
C     0.6   -0.5   -0.7
O    -0.1    0.4   -1.4
C    -0.9    0.9   -0.3
C    -1.4   -0.3    0.4
C    -0.5   -1.2    0.1
H     0.8    2.4    0.1
H     0.2    1.5    1.6
H     1.3   -1.1   -1.3
H    -1.6    1.7   -0.6
H    -2.2   -0.3    1.0
H    -0.4   -2.2    0.6
