          13
 frame:         3063
C    -1.3    0.7    0.0
C    -1.1   -0.8   -0.1
O    -0.2   -1.4    0.9
C     0.4   -1.1   -0.4
C     1.1    0.3   -0.4
O     1.0    1.0    0.9
C     0.1    1.3   -0.1
H    -2.0    1.0   -0.8
H    -1.8    0.9    1.0
H    -1.8   -1.5   -0.5
H     0.8   -1.9   -1.0
H     2.0    0.5   -0.9
H     0.1    2.4   -0.5
