          15
 frame:         1369
C     1.2   -0.5    0.6
C     2.2    0.0   -0.1
C     3.2    1.0    0.3
C     4.7    0.6    0.0
C     5.5    0.3    1.0
C     5.0    0.4   -1.4
C     5.3    0.3   -2.5
H     0.5   -1.2    0.3
H     1.2   -0.2    1.7
H     2.2   -0.2   -1.2
H     3.1    1.2    1.4
H     3.1    2.0   -0.2
H     5.2    0.4    2.1
H     6.5   -0.0    0.8
H     5.5    0.2   -3.6
