          20
 frame:         1701
C     1.0   -0.0   -0.0
C     2.5    0.0    0.1
C     3.1    1.2    0.9
C     4.5    0.7    1.2
C     4.4   -0.8    1.4
C     5.5   -1.6    0.9
N     3.1   -1.2    0.7
H     0.7   -0.9   -0.6
H     0.6    0.9   -0.5
H     0.6   -0.1    1.0
H     2.9    0.2   -1.0
H     2.5    1.2    1.9
H     3.0    2.1    0.4
H     5.2    0.9    0.3
H     5.0    1.2    2.1
H     4.2   -1.0    2.5
H     5.8   -1.5   -0.2
H     5.4   -2.7    1.1
H     6.5   -1.4    1.5
H     3.2   -1.9    0.0
