          17
 frame:         3780
C     1.1   -0.3    0.1
C     2.6   -0.5    0.1
C     3.3    0.8   -0.2
C     4.9    0.6   -0.1
O     5.4   -0.5    0.2
C     5.7    1.8   -0.5
C     5.3    3.0   -0.8
H     0.5   -1.2    0.3
H     0.7   -0.0   -0.9
H     0.7    0.5    0.8
H     2.9   -1.3   -0.5
H     2.9   -0.8    1.1
H     3.1    1.6    0.5
H     3.1    1.1   -1.2
H     6.8    1.6   -0.4
H     4.2    3.2   -0.9
H     6.0    3.8   -1.0
