          17
 frame:          554
C     3.1   -0.9   -0.7
N     2.6    0.1    0.3
C     3.1    1.4    0.2
C     2.4    2.3    1.2
C     4.6    1.5    0.4
C     5.5    1.8   -0.6
H     2.7   -1.9   -0.6
H     4.2   -0.9   -0.8
H     2.7   -0.5   -1.7
H     2.8   -0.3    1.2
H     2.9    1.8   -0.8
H     2.6    2.0    2.3
H     1.3    2.2    1.1
H     2.7    3.4    1.1
H     5.0    1.3    1.4
H     5.2    2.0   -1.6
H     6.6    1.8   -0.4
