          22
 frame:         2485
C     3.6   -1.2   -0.1
C     2.7   -0.2    0.6
N     3.2    1.1    0.8
C     2.1    2.0    1.1
C     4.4    1.2    1.6
C     5.0    2.6    1.4
C     4.1    0.9    3.1
H     3.1   -2.1   -0.4
H     4.5   -1.4    0.5
H     4.0   -0.7   -1.0
H     2.3   -0.7    1.5
H     1.8   -0.1   -0.1
H     1.3    2.0    0.4
H     2.4    3.1    1.2
H     1.6    1.7    2.1
H     5.1    0.5    1.2
H     4.5    3.4    1.9
H     5.2    2.8    0.4
H     6.0    2.6    1.9
H     3.5    1.7    3.6
H     5.1    0.9    3.6
H     3.6   -0.1    3.2
