          15
 frame:         1313
C     1.2   -0.2   -0.6
C     2.5   -0.1   -0.3
C     3.1    1.2   -0.2
C     4.5    1.4    0.2
C     4.8    2.9    0.2
C     3.5    3.5   -0.1
C     2.5    2.6   -0.4
H     0.7   -1.2   -0.7
H     0.5    0.6   -0.8
H     3.1   -0.9   -0.1
H     5.2    0.6    0.4
H     5.6    3.1   -0.5
H     5.2    3.2    1.2
H     3.3    4.6   -0.2
H     1.5    2.7   -0.6
