          16
 frame:          631
N     0.5    0.2    0.0
C     1.8    0.0   -0.5
C     2.9    0.5    0.5
N     4.2    0.2    0.0
C     5.3    0.1    1.1
C     4.8   -1.1    0.3
H    -0.2   -0.2   -0.6
H     0.3    1.2    0.1
H     2.0    0.5   -1.4
H     1.9   -1.1   -0.7
H     2.7   -0.1    1.5
H     2.8    1.5    0.8
H     5.0    0.2    2.1
H     6.2    0.6    0.8
H     5.4   -1.5   -0.5
H     4.2   -1.8    0.9
