          15
 frame:         3771
C     2.8   -1.1   -0.6
C     2.4    0.0    0.4
C     3.0    1.4    0.0
C     2.5    2.6    0.9
O     1.6    2.5    1.7
C     4.5    1.4   -0.0
C     5.7    1.5    0.0
H     2.3   -2.0   -0.2
H     3.8   -1.2   -0.7
H     2.4   -0.9   -1.5
H     2.8   -0.2    1.4
H     1.4    0.2    0.6
H     2.7    1.6   -1.0
H     3.1    3.5    0.7
H     6.8    1.5    0.0
