          17
 frame:         5731
C     0.8   -0.2   -0.2
N     2.2   -0.1    0.2
C     3.0   -1.3    0.3
C     2.9    1.1    0.0
N     4.2    1.3    0.1
C     2.0    2.4   -0.2
O     2.9    3.5   -0.2
H     0.2    0.7    0.0
H     0.4   -1.1    0.4
H     0.7   -0.5   -1.3
H     2.3   -2.2    0.5
H     3.8   -1.2    1.1
H     3.5   -1.6   -0.7
H     4.7    0.5    0.2
H     1.3    2.5    0.7
H     1.5    2.3   -1.1
H     3.8    3.1   -0.1
