          14
 frame:         4876
C     1.0    0.1   -0.1
C     2.5   -0.0    0.1
N     3.1    1.0    0.6
O     4.5    0.9    0.8
C     5.2    0.1   -0.1
C     4.6   -1.3   -0.0
C     3.2   -1.3    0.0
H     0.5   -0.7    0.5
H     0.8   -0.2   -1.2
H     0.7    1.1    0.1
H     6.2    0.1    0.3
H     5.2    0.5   -1.1
H     5.2   -2.2   -0.0
H     2.6   -2.2    0.1
