          15
 frame:         5433
C     3.3   -1.4   -0.1
C     2.6   -0.1   -0.2
N     1.4    0.2   -0.4
N     3.5    1.0    0.0
O     2.8    2.3   -0.1
C     4.8    1.1    0.3
C     5.5    2.2    0.5
H     4.0   -1.6   -0.9
H     2.5   -2.2   -0.3
H     3.7   -1.6    0.8
H     0.8   -0.6   -0.6
H     1.9    1.9   -0.3
H     5.3    0.1    0.3
H     5.1    3.2    0.4
H     6.6    2.1    0.7
