          19
 frame:          455
C     1.0   -0.1    0.0
C     2.5   -0.1    0.0
C     3.0    1.4    0.0
C     4.6    1.4    0.0
N     5.0    2.8   -0.0
C     6.5    2.9    0.0
H     0.6   -1.1    0.0
H     0.5    0.4   -0.9
H     0.5    0.4    0.9
H     2.9   -0.6   -0.9
H     2.9   -0.6    0.9
H     2.6    1.9    0.9
H     2.7    1.9   -0.9
H     5.0    0.9   -0.9
H     5.0    0.9    0.9
H     4.6    3.3    0.8
H     6.9    2.5   -0.9
H     7.0    2.4    0.9
H     6.8    4.0    0.1
