          16
 frame:         6208
N     2.6   -0.5    1.5
C     2.5    0.0    0.1
C     3.0    1.4   -0.0
C     4.0    1.9   -0.7
O     4.2    3.2   -0.7
C     3.0    3.8   -0.1
C     2.2    2.6    0.6
H     2.2   -1.4    1.6
H     1.9    0.1    2.1
H     1.5   -0.1   -0.3
H     3.2   -0.6   -0.5
H     4.8    1.3   -1.2
H     2.4    4.3   -0.9
H     3.3    4.6    0.7
H     1.2    2.6    0.3
H     2.3    2.6    1.7
