          16
 frame:         4712
C     1.0   -0.1    0.3
C     2.4    0.1   -0.1
C     3.3    1.1    0.7
N     4.2    0.0    1.1
C     5.3   -0.1    2.0
C     3.4   -1.0    0.5
O     3.5   -2.2    0.4
H     0.6   -1.0   -0.2
H     0.4    0.8   -0.1
H     0.9   -0.1    1.4
H     2.6    0.2   -1.2
H     2.8    1.6    1.5
H     3.8    1.9    0.1
H     5.6   -1.1    2.0
H     5.1    0.3    3.0
H     6.2    0.5    1.5
