          17
 frame:         5444
C     4.3   -1.1    0.8
C     3.2   -0.2    0.2
N     3.7    1.2   -0.0
O     4.2    1.8    1.1
C     3.3    2.9    1.5
C     4.6    1.4   -1.1
N     5.5    2.2   -1.3
H     3.8   -2.1    1.0
H     4.7   -0.8    1.7
H     5.1   -1.3    0.1
H     2.4   -0.1    0.9
H     2.8   -0.6   -0.7
H     3.7    3.3    2.4
H     2.3    2.5    1.7
H     3.2    3.6    0.7
H     4.3    0.7   -2.0
H     5.7    2.6   -0.4
