          17
 frame:         3536
C     2.1   -0.6   -1.4
C     2.4   -0.0    0.0
C     3.2    1.3   -0.1
O     4.5    1.0   -0.8
C     2.4    2.5   -0.5
O     2.3    3.0    0.8
C     3.4    2.1    1.3
H     1.5   -1.5   -1.2
H     3.0   -0.8   -1.9
H     1.5    0.1   -2.0
H     3.0   -0.7    0.6
H     1.5    0.2    0.6
H     5.0    1.8   -0.8
H     1.4    2.4   -1.0
H     3.0    3.2   -1.2
H     4.3    2.5    1.4
H     3.0    1.5    2.2
