          16
 frame:          680
C     1.0   -0.1    0.3
C     2.4    0.1   -0.2
C     3.2    1.2    0.7
C     4.1   -0.0    1.0
C     5.6    0.0    0.6
O     3.3   -0.9    0.2
H     0.6   -1.0   -0.2
H     0.3    0.8   -0.0
H     0.9   -0.2    1.3
H     2.5    0.3   -1.2
H     2.7    1.6    1.5
H     3.7    2.0    0.1
H     4.1   -0.3    2.1
H     5.6    0.3   -0.5
H     6.0   -1.0    0.7
H     6.1    0.7    1.2
