          15
 frame:         5778
C     0.9    1.1    0.5
N     2.4    0.8    0.3
C     3.2    1.6   -0.4
N     3.0    2.8   -0.9
C     4.6    1.1   -0.6
C     5.4    0.6    0.5
O     4.8   -0.4   -0.3
H     0.5    0.3    1.1
H     0.4    1.2   -0.5
H     0.8    2.0    1.1
H     2.7   -0.2    0.3
H     2.0    3.1   -0.7
H     5.1    1.4   -1.5
H     5.0    0.7    1.5
H     6.5    0.6    0.5
