          17
 frame:         3264
C     0.9    0.0   -0.0
C     2.5    0.0    0.0
C     3.1    1.2    0.9
C     4.5    0.6    1.2
O     4.3   -0.8    1.3
C     3.1   -1.2    0.7
C     2.7   -2.5    0.6
H     0.6   -0.8   -0.6
H     0.6    1.0   -0.5
H     0.5   -0.1    1.0
H     2.9    0.1   -1.0
H     2.5    1.3    1.8
H     3.1    2.1    0.3
H     5.2    0.8    0.4
H     4.9    0.9    2.1
H     1.8   -2.7    0.1
H     3.2   -3.3    1.1
