          15
 frame:         2611
C     1.0    0.0    0.0
N     2.4    0.0    0.0
C     3.2    1.1   -0.0
C     4.6    0.7   -0.1
C     4.5   -0.8   -0.1
N     5.7   -1.6   -0.2
C     3.2   -1.1   -0.0
H     0.6    1.1    0.1
H     0.6   -0.6    0.9
H     0.6   -0.4   -0.9
H     2.8    2.1    0.0
H     5.4    1.3   -0.1
H     5.5   -2.5    0.1
H     6.5   -1.2    0.3
H     2.8   -2.1   -0.0
