          19
 frame:         3619
C     2.4   -0.8    1.4
C     2.4   -0.0    0.1
C     1.9   -0.6   -1.0
C     3.1    1.3    0.1
C     3.1    2.0   -1.2
C     2.5    2.3    1.1
O     4.5    1.2    0.6
H     3.4   -0.7    1.9
H     2.1   -1.8    1.3
H     1.7   -0.3    2.1
H     1.4   -1.6   -1.0
H     1.9   -0.1   -1.9
H     3.6    1.4   -2.0
H     3.7    3.0   -1.2
H     2.1    2.2   -1.6
H     2.6    1.9    2.2
H     1.4    2.4    0.9
H     3.0    3.2    1.1
H     4.9    0.6   -0.1
