          14
 frame:         4546
C    -0.9    0.0   -1.2
C    -0.7    1.0   -0.1
N    -1.4    0.0    0.8
C    -0.7   -1.0   -0.1
C     0.8   -0.7    0.3
O     1.6   -0.0   -0.7
C     0.8    0.7    0.3
H    -2.0    0.0   -1.5
H    -0.2    0.0   -2.1
H    -1.0    2.0   -0.1
H    -1.0   -0.0    1.8
H    -1.0   -2.0   -0.1
H     1.4   -1.4    1.0
H     1.4    1.4    1.0
