          15
 frame:         1765
C     1.0   -0.0   -0.0
N     2.5    0.1    0.0
C     3.2    1.2    0.0
C     4.5    0.8    0.0
C     4.5   -0.7    0.0
C     5.6   -1.7    0.0
N     3.2   -1.1    0.0
H     0.6    1.0    0.0
H     0.7   -0.6    0.9
H     0.7   -0.6   -0.9
H     2.8    2.2    0.0
H     5.4    1.4    0.0
H     5.2   -2.7    0.0
H     6.2   -1.5    0.9
H     6.2   -1.6   -0.9
