          19
 frame:         2405
C     1.5   -0.8    1.0
C     2.4   -0.3   -0.1
C     3.2   -1.4   -0.8
N     1.7    0.5   -1.1
C     2.4    1.5   -1.9
N     0.6   -0.1   -1.7
C     0.1    0.3   -2.8
H     0.9    0.0    1.5
H     2.1   -1.3    1.8
H     0.7   -1.5    0.6
H     3.1    0.4    0.3
H     2.5   -2.1   -1.2
H     3.8   -1.9   -0.0
H     3.9   -1.0   -1.5
H     3.3    1.9   -1.3
H     1.8    2.4   -2.1
H     2.8    1.1   -2.9
H    -0.8   -0.3   -3.1
H     0.5    1.1   -3.4
