          18
 frame:         5031
C     3.5   -1.0   -0.3
C     2.9    0.0    0.6
C     3.2    1.5    0.2
C     2.4    2.5    1.1
C     4.7    1.8    0.3
N     5.3    2.1   -0.7
O     6.7    2.4   -0.4
H     3.3   -2.0    0.0
H     4.6   -0.9   -0.3
H     3.2   -0.9   -1.3
H     3.3   -0.1    1.7
H     1.8   -0.1    0.7
H     2.9    1.6   -0.8
H     2.7    2.4    2.2
H     1.4    2.3    1.1
H     2.6    3.5    0.8
H     5.2    1.7    1.3
H     7.1    2.6   -1.3
