          17
 frame:         2518
C     1.1   -0.3    0.1
C     2.6   -0.3    0.1
N     3.1    1.1    0.1
C     4.6    1.1    0.1
C     5.0    2.6    0.0
C     6.5    2.7    0.0
N     7.7    2.8    0.0
H     0.7   -1.3    0.0
H     0.7    0.3   -0.8
H     0.7    0.2    1.0
H     2.9   -0.8   -0.9
H     3.0   -0.9    0.9
H     2.7    1.6    0.9
H     5.0    0.6   -0.8
H     5.0    0.7    1.0
H     4.7    3.2    0.9
H     4.6    3.1   -0.9
