          20
 frame:         2238
C     0.4   -0.5   -0.7
C     1.9   -0.6   -0.2
C     2.6    0.8   -0.3
C     4.0    0.8    0.2
N     4.6    2.1    0.2
C     6.1    2.1    0.1
C     5.2    2.5   -1.1
H    -0.0   -1.5   -0.7
H     0.3   -0.1   -1.7
H    -0.2    0.1   -0.1
H     2.5   -1.3   -0.9
H     1.9   -1.0    0.8
H     2.0    1.5    0.4
H     2.5    1.2   -1.3
H     4.6    0.1   -0.5
H     4.1    0.4    1.2
H     6.6    1.1   -0.0
H     6.6    2.9    0.7
H     5.1    3.5   -1.4
H     5.2    1.8   -1.9
