          16
 frame:         6622
O     2.2   -0.4    1.4
C     2.5   -0.1    0.1
C     3.0    1.4   -0.0
C     4.1    1.8   -0.6
C     4.3    3.3   -0.4
N     3.0    3.7    0.1
C     2.2    2.5    0.6
H     1.8   -1.2    1.4
H     1.6   -0.1   -0.6
H     3.2   -0.7   -0.4
H     4.9    1.1   -1.0
H     5.1    3.5    0.3
H     4.5    3.8   -1.3
H     2.4    4.1   -0.7
H     1.2    2.5    0.3
H     2.2    2.5    1.7
