          17
 frame:         5170
C     0.8   -0.0   -0.3
C     2.3    0.1   -0.1
C     3.0   -0.8   -1.1
N     2.7   -2.2   -1.1
C     2.8    1.5   -0.2
N     3.2    2.1    1.0
O     2.8    2.1   -1.2
H     0.2    0.5    0.6
H     0.5   -1.1   -0.3
H     0.5    0.5   -1.2
H     2.6   -0.3    0.9
H     4.1   -0.6   -1.1
H     2.8   -0.4   -2.1
H     3.2   -2.6   -0.3
H     3.0   -2.7   -1.9
H     3.1    1.6    1.9
H     3.4    3.1    1.0
