          14
 frame:          655
C     0.4    1.4    0.3
C     1.3    0.3   -0.2
O     1.0   -1.0    0.2
C    -0.3   -1.3    0.2
C    -1.3   -0.4   -0.0
C    -1.0    1.1   -0.1
H     0.7    2.4   -0.0
H     0.4    1.4    1.4
H     2.4    0.5    0.1
H     1.3    0.3   -1.3
H    -0.5   -2.4    0.4
H    -2.4   -0.8   -0.0
H    -1.2    1.4   -1.2
H    -1.8    1.7    0.5
