          20
 frame:         1998
C     2.9   -1.0   -0.5
C     2.3    0.2    0.3
C     3.4    1.3    0.4
N     3.6    2.2   -0.8
C     3.1    2.8    0.5
C     1.7    3.3    0.5
C     4.1    3.7    1.2
H     2.1   -1.8   -0.5
H     3.8   -1.4    0.1
H     3.2   -0.8   -1.5
H     2.0   -0.1    1.3
H     1.4    0.6   -0.2
H     4.3    1.0    0.8
H     2.9    2.1   -1.5
H     1.0    2.6   -0.1
H     1.6    4.3   -0.0
H     1.3    3.4    1.5
H     5.1    3.3    1.1
H     3.8    3.7    2.3
H     4.0    4.7    0.8
