          16
 frame:         6775
O     1.6   -0.1    1.2
C     2.5    0.1    0.4
N     3.0    1.3   -0.1
C     2.5    2.5    0.5
C     3.3    3.6   -0.3
C     4.6    2.8   -0.7
C     4.1    1.4   -1.0
H     3.0   -0.8   -0.1
H     2.8    2.6    1.6
H     1.4    2.6    0.4
H     2.7    3.9   -1.2
H     3.5    4.5    0.2
H     5.1    3.3   -1.6
H     5.3    2.8    0.1
H     3.7    1.4   -2.1
H     4.8    0.7   -0.9
