          15
 frame:         1110
N     1.4   -0.4   -0.8
C     2.9   -0.2   -0.6
C     3.2    1.2   -0.2
O     2.3    1.6    0.8
C     4.6    1.4    0.3
C     5.6    2.0   -0.4
H     1.1   -1.3   -0.7
H     1.2   -0.0   -1.7
H     3.5   -0.5   -1.5
H     3.2   -0.9    0.2
H     3.0    1.9   -1.1
H     1.5    1.1    0.6
H     4.8    0.9    1.2
H     5.4    2.5   -1.4
H     6.6    2.0   -0.0
