          14
 frame:          741
C     0.8    0.1    0.1
C     2.3    0.0    0.2
C     3.1    0.9   -0.2
C     4.7    0.8   -0.1
C     5.1    1.8    1.0
O     5.9    2.7    0.8
H     0.4   -0.7   -0.5
H     0.5    1.1   -0.4
H     0.3    0.0    1.1
H     2.7   -0.9    0.6
H     2.8    1.9   -0.7
H     5.2    1.1   -1.0
H     4.9   -0.2    0.2
H     4.7    1.6    2.0
