          17
 frame:         4404
O     1.9   -0.2   -1.3
C     2.4    0.1    0.0
C     3.1    1.5   -0.1
C     2.2    2.6   -0.6
C     3.0    3.8    0.1
C     3.4    3.2    1.5
O     3.6    1.8    1.2
H     1.6   -1.1   -1.3
H     3.0   -0.6    0.5
H     1.5    0.3    0.7
H     4.0    1.3   -0.8
H     1.2    2.5   -0.2
H     2.2    2.8   -1.6
H     3.9    4.1   -0.4
H     2.3    4.7    0.3
H     4.3    3.6    1.9
H     2.5    3.3    2.2
