          13
 frame:         4462
O     2.5    0.1    1.9
C     2.2    1.0    1.1
C     3.1    1.6    0.1
C     4.5    1.2    0.1
C     5.6    2.0    0.0
C     6.9    1.6    0.0
C     8.1    1.3    0.0
H     1.2    1.4    1.1
H     3.0    2.8    0.2
H     2.6    1.4   -0.9
H     4.7    0.1    0.2
H     5.4    3.1   -0.0
H     9.1    1.1    0.0
