          15
 frame:         4265
O     1.6   -0.1   -0.9
C     2.8    0.1   -0.1
C     3.5   -1.1    0.5
C     4.1   -0.4   -0.7
C     5.1    0.7   -0.4
O     4.5    1.5    0.6
C     3.1    1.5    0.4
H     0.9   -0.3   -0.3
H     3.1   -2.0    0.4
H     3.9   -0.9    1.5
H     4.2   -0.9   -1.6
H     6.1    0.4    0.0
H     5.3    1.3   -1.3
H     2.6    1.7    1.4
H     2.8    2.2   -0.3
