          13
 frame:         5878
C     3.1   -1.2    0.5
O     2.3    0.0    0.3
C     3.1    1.1    0.2
N     2.5    2.3   -0.1
N     3.5    3.2   -0.1
C     4.7    2.6    0.0
C     4.5    1.3    0.2
H     2.3   -2.0    0.6
H     3.6   -1.1    1.4
H     3.8   -1.4   -0.3
H     3.3    4.2   -0.3
H     5.6    3.2   -0.0
H     5.3    0.5    0.4
