          14
 frame:          299
C     0.9   -0.0   -0.0
C     2.4   -0.0   -0.0
C     3.6    0.0    0.0
C     5.1    0.0    0.0
C     5.6    1.4    0.0
C     6.5    1.9    0.9
H     0.5    1.0   -0.0
H     0.5   -0.6    0.8
H     0.6   -0.5   -0.9
H     5.5   -0.5   -0.8
H     5.5   -0.5    0.9
H     5.3    2.1   -0.8
H     6.8    1.4    1.8
H     6.8    3.0    0.8
