          15
 frame:         1574
C    -1.5    0.7    0.2
C    -1.4   -0.8   -0.2
C    -0.3   -1.6    0.3
C     1.0   -1.1    0.4
N     1.6    0.1   -0.0
C     0.9    1.2   -0.4
N    -0.4    1.5   -0.4
H    -2.4    1.1   -0.1
H    -1.5    0.7    1.3
H    -1.4   -0.8   -1.4
H    -2.4   -1.3    0.1
H    -0.5   -2.5    0.7
H     1.7   -1.8    0.9
H     1.5    2.0   -0.8
H    -0.6    2.4   -0.7
