          13
 frame:         3721
C     0.9   -0.1    0.1
C     2.5    0.0   -0.1
C     2.9   -0.7   -1.3
C     3.3   -1.3   -2.3
C     2.8    1.6   -0.2
O     3.6    1.9   -1.2
O     2.5    2.3    0.7
H     0.6    0.5    1.0
H     0.7   -1.2    0.3
H     0.4    0.2   -0.7
H     3.0   -0.3    0.8
H     3.7   -1.8   -3.1
H     3.7    1.2   -1.8
