          13
 frame:         6202
N     1.7   -0.3   -1.1
C     2.7   -0.1   -0.1
C     3.1    1.3   -0.0
C     2.4    2.4   -0.5
O     3.0    3.6   -0.2
N     4.3    3.3    0.4
C     4.3    1.9    0.5
H     1.4   -1.3   -1.1
H     2.1   -0.2   -2.0
H     3.7   -0.7   -0.2
H     2.3   -0.4    0.9
H     1.4    2.5   -0.9
H     5.1    1.5    1.0
