          13
 frame:         3268
C     1.0    0.0    0.0
C     2.5   -0.1    0.0
C     3.3   -1.1   -0.1
C     4.7   -0.7   -0.0
O     4.7    0.7    0.1
C     3.3    1.1    0.1
O     3.0    2.3    0.1
H     0.5   -0.9   -0.1
H     0.6    0.7   -0.8
H     0.6    0.5    0.9
H     3.0   -2.2   -0.1
H     5.2   -1.1    0.8
H     5.2   -1.0   -0.9
