          19
 frame:         4208
C     2.4   -0.3   -0.7
O     3.5    0.6   -0.4
C     3.2    2.0   -0.0
C     2.5    2.7   -1.2
C     2.4    2.0    1.3
C     4.6    2.5    0.2
O     5.5    2.4   -0.9
H     2.8   -1.3   -0.9
H     1.9    0.1   -1.6
H     1.6   -0.3    0.1
H     3.1    2.6   -2.1
H     2.4    3.7   -0.9
H     1.5    2.2   -1.4
H     2.9    1.5    2.1
H     1.4    1.7    1.2
H     2.3    3.1    1.6
H     5.0    2.0    1.1
H     4.5    3.6    0.4
H     5.4    1.4   -1.2
