          20
 frame:         5342
C     1.0   -0.3    0.1
C     2.4   -0.1    0.7
N     3.0    1.2    0.3
C     2.4    2.3    1.1
C     4.5    1.2    0.5
C     5.2    0.5   -0.7
O     4.7    1.1   -1.9
H     0.7   -1.4    0.3
H     1.0   -0.2   -1.0
H     0.3    0.3    0.6
H     3.1   -0.9    0.2
H     2.5   -0.3    1.8
H     1.3    2.3    0.8
H     2.8    3.2    0.8
H     2.5    2.1    2.2
H     4.8    0.7    1.5
H     4.8    2.2    0.6
H     5.0   -0.6   -0.7
H     6.3    0.7   -0.6
H     3.8    1.3   -1.7
