          17
 frame:         3285
C     1.0    0.0    0.1
C     2.5    0.0   -0.0
C     3.3   -1.1   -0.1
C     4.7   -0.7   -0.1
O     5.4   -1.1    1.2
C     4.7    0.8   -0.3
C     3.3    1.3   -0.0
H     0.6   -1.0    0.1
H     0.6    0.6   -0.8
H     0.7    0.6    1.0
H     2.9   -2.1   -0.1
H     5.3   -1.2   -0.8
H     4.7   -0.9    1.9
H     5.0    1.0   -1.4
H     5.5    1.3    0.3
H     2.9    2.0   -0.8
H     3.2    1.8    0.9
