          18
 frame:         4825
C     0.9   -0.0    0.1
C     2.4    0.0   -0.1
N     2.7    0.0   -1.5
C     3.1    1.1    0.8
C     4.2    0.0    1.1
O     5.3    0.2    0.3
C     3.2   -1.1    0.7
H     0.6   -0.1    1.2
H     0.4   -0.9   -0.4
H     0.4    0.9   -0.3
H     3.7    0.1   -1.6
H     2.2    0.9   -1.9
H     2.6    1.4    1.7
H     3.5    2.0    0.3
H     4.5   -0.1    2.2
H     5.9   -0.6    0.4
H     3.6   -1.9    0.0
H     2.7   -1.5    1.5
