          13
 frame:         6579
O     0.9   -0.1    0.3
C     2.3    0.1   -0.1
C     2.9    1.2    0.7
N     3.9    1.0    1.4
N     4.4   -0.3    1.1
C     3.5   -1.3    1.8
C     3.3   -1.0    0.3
H     0.5   -0.7   -0.3
H     2.4    0.2   -1.2
H     2.4    2.2    0.7
H     4.0   -2.2    2.1
H     2.7   -0.9    2.5
H     3.7   -1.7   -0.4
