          18
 frame:         1795
C     0.9   -0.1    0.1
C     2.4   -0.3   -0.2
C     3.0   -0.3   -1.5
N     3.1    0.9   -0.7
C     4.4    1.1   -0.1
C     5.3    2.0   -1.1
C     6.5    1.6   -1.5
H     0.7    0.4    1.0
H     0.4   -1.1    0.1
H     0.5    0.5   -0.7
H     2.9   -0.8    0.6
H     2.4   -0.2   -2.4
H     3.9   -0.9   -1.7
H     5.0    0.2    0.1
H     4.3    1.7    0.8
H     4.8    2.9   -1.5
H     7.0    0.7   -1.1
H     7.1    2.3   -2.1
