          14
 frame:         4924
C     1.0    0.0    0.0
C     2.5   -0.0   -0.1
O     2.9   -1.2   -0.9
N     3.4   -0.7   -2.1
C     3.4    0.6   -2.1
C     3.1    1.2   -0.8
O     4.3    1.8   -0.2
H     0.6    0.8    0.7
H     0.6   -0.9    0.4
H     0.5    0.1   -1.0
H     2.9   -0.1    0.9
H     3.7    1.1   -3.0
H     2.4    2.0   -0.8
H     5.0    1.1   -0.3
