          17
 frame:         3770
C     2.3   -0.9   -1.0
C     2.1    0.1    0.1
C     2.4    1.5   -0.3
C     1.4    2.5   -0.2
O     3.7    1.7   -0.6
C     4.0    2.8   -1.4
C     5.2    3.4   -1.3
H     2.1   -1.9   -0.7
H     3.3   -0.8   -1.4
H     1.6   -0.7   -1.9
H     2.8   -0.2    0.9
H     1.1    0.0    0.5
H     0.4    2.3    0.0
H     1.7    3.5   -0.5
H     3.2    3.1   -2.1
H     6.0    3.0   -0.6
H     5.5    4.2   -2.0
