          13
 frame:         3442
C     0.9    0.0   -0.1
C     2.4   -0.0    0.1
O     2.8   -1.2    0.9
C     3.5   -0.9    2.0
O     3.9   -1.7    2.8
C     3.6    0.6    2.1
C     3.0    1.1    1.0
H     0.6   -0.8   -0.7
H     0.7    0.9   -0.7
H     0.4    0.1    0.8
H     3.0   -0.1   -0.8
H     4.1    1.1    2.9
H     2.9    2.1    0.7
