          14
 frame:         4547
C    -1.3    0.6    0.0
C    -1.1   -0.9   -0.1
N    -0.2   -1.6    0.9
C     0.4   -1.1   -0.4
C     1.1    0.3   -0.4
O     1.0    0.9    0.9
C     0.1    1.3   -0.1
H    -1.9    1.0   -0.8
H    -1.8    0.9    0.9
H    -1.9   -1.5   -0.6
H     0.1   -0.9    1.6
H     0.8   -1.9   -1.1
H     2.0    0.5   -0.9
H     0.1    2.4   -0.4
