          18
 frame:         5156
C     1.8   -1.3    1.0
C     1.8   -0.1    0.0
C     3.0    0.8    0.1
N     4.3    0.1   -0.3
C     4.8    0.2   -1.5
C     6.1   -0.5   -1.8
O     4.3    0.9   -2.4
H     0.9   -1.9    0.9
H     1.9   -1.0    2.0
H     2.7   -1.9    0.8
H     0.9    0.5    0.2
H     1.7   -0.5   -1.0
H     3.2    1.2    1.1
H     2.9    1.7   -0.6
H     4.8   -0.4    0.4
H     6.5   -1.0   -0.8
H     6.9    0.1   -2.2
H     5.9   -1.3   -2.5
