          15
 frame:         3119
C     1.6   -0.5    0.3
O     0.8   -1.7   -0.1
C    -0.1   -0.8   -0.8
C    -1.4   -0.6   -0.0
C    -1.4    0.6    0.6
C    -0.1    1.4    0.3
C     0.8    0.4   -0.5
H     2.7   -0.6    0.0
H     1.6   -0.4    1.4
H    -0.3   -1.1   -1.8
H    -2.2   -1.3    0.1
H    -2.2    1.0    1.2
H     0.4    1.8    1.2
H    -0.4    2.3   -0.3
H     1.3    0.9   -1.4
