          15
 frame:         5663
C     1.1   -0.0    0.3
N     2.6    0.1   -0.1
C     3.0    1.2   -0.3
N     2.4    2.5   -0.2
C     3.5    3.5   -0.1
C     4.6    2.8   -0.9
O     4.4    1.4   -0.6
H     0.8   -1.1    0.4
H     0.5    0.4   -0.5
H     0.9    0.5    1.2
H     1.6    2.6    0.4
H     3.2    4.4   -0.7
H     3.8    3.7    0.9
H     4.6    2.9   -2.0
H     5.6    3.0   -0.5
