          17
 frame:         2741
C     0.6   -0.3   -0.1
N     2.0   -0.2    0.3
C     2.5   -1.5    0.8
C     2.8    0.6   -0.4
N     2.5    1.3   -1.5
C     4.2    0.9    0.2
C     4.5    0.9    1.5
H     0.2    0.8   -0.2
H    -0.0   -0.8    0.6
H     0.5   -0.8   -1.1
H     1.9   -1.8    1.7
H     3.5   -1.4    1.1
H     2.3   -2.3    0.1
H     1.6    1.1   -1.8
H     4.9    1.2   -0.6
H     3.8    0.7    2.3
H     5.5    1.2    1.8
