          20
 frame:         2979
N     0.3    1.5    0.1
C     1.6    1.0    0.2
C     2.6    2.2    0.2
C     4.1    1.8    0.3
C     5.1    2.9    0.3
C     6.5    2.5    0.5
C     7.5    2.7   -0.5
H    -0.4    0.7    0.1
H     0.1    1.9   -0.8
H     1.9    0.3   -0.6
H     1.8    0.5    1.1
H     2.4    2.9    1.1
H     2.5    2.8   -0.7
H     4.3    1.1   -0.5
H     4.2    1.2    1.3
H     4.8    3.6    1.1
H     5.0    3.5   -0.6
H     6.8    2.0    1.4
H     7.3    3.3   -1.4
H     8.5    2.4   -0.3
