          14
 frame:         6708
O     3.2    3.8   -1.6
C     2.5    3.2   -0.8
C     2.9    2.0    0.1
C     4.3    1.5   -0.2
C     5.5    2.5    0.3
C     5.4    2.7    1.7
N     5.3    2.9    2.9
H     1.5    3.6   -0.5
H     2.2    1.2   -0.1
H     2.8    2.3    1.1
H     4.5    1.4   -1.3
H     4.5    0.5    0.3
H     5.4    3.4   -0.2
H     6.5    2.0    0.1
