          14
 frame:         6176
N     1.2   -0.5    0.9
C     2.3   -0.2    0.4
C     3.6    0.1   -0.1
C     4.3    1.3    0.6
C     5.5    0.6    1.3
C     5.2   -0.9    1.2
O     4.5   -1.0   -0.0
H     3.5    0.3   -1.2
H     3.6    1.7    1.3
H     4.6    2.0   -0.1
H     6.4    0.8    0.8
H     5.6    0.9    2.4
H     6.0   -1.6    1.2
H     4.5   -1.2    2.1
