          15
 frame:         3087
C    -1.3   -0.8   -0.5
C    -1.2    0.8   -0.5
C     0.0    1.0    0.3
O     1.2    0.7   -0.5
C     1.2   -0.7   -0.5
C    -0.0   -1.1    0.3
O    -0.0   -0.0    1.3
H    -1.2   -1.2   -1.5
H    -2.2   -1.2   -0.0
H    -2.1    1.2   -0.1
H    -1.1    1.2   -1.5
H     0.1    2.0    0.8
H     2.2   -1.1    0.0
H     1.2   -1.1   -1.5
H     0.0   -2.1    0.8
