          16
 frame:         6155
N     0.9   -0.1    0.0
C     2.3   -0.1   -0.0
C     2.7   -0.0   -1.5
O     2.1    1.1   -2.2
C     3.0    1.0    0.8
O     3.9    0.1    1.4
C     3.2   -1.0    0.8
H     0.5    0.0    1.0
H     0.5   -1.0   -0.3
H     2.5   -1.0   -2.0
H     3.8    0.1   -1.6
H     1.2    1.1   -1.8
H     2.3    1.4    1.6
H     3.5    1.9    0.3
H     3.8   -1.7    0.3
H     2.6   -1.6    1.6
