          16
 frame:          880
C     2.1    4.1    2.2
O     2.3    2.7    2.5
C     3.2    2.0    1.7
C     2.9    1.9    0.2
O     4.6    2.5    1.8
C     5.1    2.3    3.1
H     1.6    4.6    3.0
H     1.6    4.2    1.2
H     3.1    4.6    2.0
H     3.2    0.9    2.2
H     3.0    2.9   -0.2
H     1.8    1.7    0.1
H     3.5    1.2   -0.3
H     6.2    2.7    3.1
H     5.1    1.2    3.4
H     4.6    2.9    3.9
