          17
 frame:         4510
O     0.8    0.2    0.0
C     2.2   -0.1    0.2
C     3.0    1.2    0.4
C     2.4    2.0    1.6
O     1.1    2.5    1.4
C     4.5    0.9    0.6
C     5.4    1.4   -0.3
H     0.4   -0.7   -0.1
H     2.6   -0.6   -0.8
H     2.4   -0.8    1.0
H     2.8    1.9   -0.5
H     3.1    2.8    1.9
H     2.5    1.3    2.5
H     0.6    1.8    1.0
H     4.7    0.3    1.4
H     5.2    2.0   -1.1
H     6.5    1.2   -0.1
