          17
 frame:         3318
C     0.8    0.0   -0.2
C     2.3    0.2    0.1
C     2.7   -0.0    1.5
O     3.2   -0.5   -0.9
C     3.1    1.0   -0.9
C     4.5    1.7   -0.6
O     5.3    1.6   -1.7
H     0.6    0.2   -1.3
H     0.3    0.8    0.4
H     0.5   -1.0    0.1
H     3.8    0.0    1.6
H     2.4   -1.0    1.9
H     2.3    0.7    2.2
H     2.6    1.4   -1.7
H     4.9    1.3    0.4
H     4.3    2.8   -0.4
H     5.5    0.7   -1.9
