          14
 frame:         2572
C     0.8   -0.6    0.1
C     2.3   -0.2    0.1
N     2.5    1.1   -0.4
N     3.7    1.4   -0.9
C     4.0    2.7   -1.1
C     5.3    3.0   -1.7
N     6.3    3.4   -2.2
H     0.7   -1.6    0.5
H     0.4   -0.5   -0.9
H     0.2    0.1    0.7
H     2.9   -0.9   -0.5
H     2.7   -0.3    1.2
H     2.0    1.9    0.0
H     3.4    3.5   -0.8
