          19
 frame:         3551
C     1.0    0.2   -0.7
C     2.5    0.2   -1.0
C     3.4    0.2    0.2
C     4.9    0.2   -0.1
C     5.6    1.5   -0.7
O     6.6    1.6    0.4
C     5.9    0.5    1.1
H     0.4    0.2   -1.6
H     0.8    1.1   -0.1
H     0.8   -0.6   -0.0
H     2.8    1.1   -1.6
H     2.8   -0.7   -1.6
H     3.2   -0.6    0.9
H     3.2    1.2    0.8
H     5.2   -0.7   -0.7
H     4.9    2.4   -0.6
H     6.0    1.4   -1.7
H     6.6   -0.3    1.3
H     5.5    0.8    2.0
