          18
 frame:         5032
C     2.8   -1.3   -0.0
C     2.5   -0.1    0.8
C     3.1    1.2    0.3
C     2.6    2.4    1.2
C     4.6    1.1    0.4
N     5.3    1.4   -0.7
O     5.2    0.8    1.5
H     2.3   -2.2    0.3
H     3.9   -1.5   -0.1
H     2.4   -1.2   -1.1
H     2.8   -0.3    1.9
H     1.4    0.0    0.9
H     2.8    1.3   -0.7
H     2.9    2.3    2.2
H     1.5    2.5    1.1
H     3.0    3.3    0.8
H     4.8    1.6   -1.6
H     6.3    1.4   -0.7
