          15
 frame:         7094
C     2.3   -1.1   -1.1
N     3.4   -0.6   -0.3
C     3.6    0.7   -0.0
S     2.6    1.9   -0.7
N     4.7    1.0    0.8
C     5.7    0.2    1.1
C     6.6    0.5    2.1
H     2.4   -2.2   -1.2
H     2.2   -0.6   -2.0
H     1.3   -0.9   -0.6
H     3.8   -1.3    0.3
H     4.7    2.0    1.0
H     5.8   -0.8    0.6
H     6.6    1.5    2.6
H     7.5   -0.1    2.3
