          13
 frame:         1982
C     2.7   -1.1    0.4
C     2.2    0.1    0.2
C     3.0    1.3    0.1
C     2.5    2.6   -0.1
N     3.6    3.4   -0.1
C     4.7    2.6    0.1
N     4.3    1.4    0.3
H     2.0   -2.0    0.4
H     3.8   -1.3    0.5
H     1.1    0.2    0.0
H     1.5    3.0   -0.3
H     3.6    4.4   -0.2
H     5.7    3.0    0.2
