          15
 frame:         2559
C     1.2   -0.5   -0.3
C     2.7   -0.4   -0.3
N     3.5   -1.3   -0.8
N     3.2    0.7    0.3
C     4.7    1.0    0.1
C     5.0    2.3    0.8
C     5.3    3.3    1.3
H     0.8    0.3   -0.8
H     0.9   -0.5    0.8
H     0.9   -1.4   -0.7
H     3.0   -2.1   -1.1
H     2.6    1.5    0.4
H     5.0    1.0   -0.9
H     5.2    0.2    0.6
H     5.5    4.3    1.8
