          16
 frame:          285
C     0.9    0.1    0.0
C     2.4    0.1   -0.1
C     2.9   -0.7   -1.3
C     3.6   -1.8   -1.4
C     3.0    1.5   -0.1
C     3.8    2.0    0.8
H     0.6    0.6    0.9
H     0.5   -1.0    0.1
H     0.4    0.6   -0.9
H     2.8   -0.5    0.8
H     2.5   -0.3   -2.3
H     4.0   -2.2   -0.4
H     3.9   -2.3   -2.3
H     2.6    2.1   -1.0
H     4.2    1.4    1.6
H     4.2    3.0    0.7
