          19
 frame:         1410
C     4.6   -2.8   -0.4
C     3.7   -1.7    0.3
C     2.7   -2.1    1.0
C     4.1   -0.3    0.1
C     5.5    0.1    0.6
C     5.7   -0.1    2.1
C     6.5    0.5   -0.2
H     4.5   -2.6   -1.5
H     4.2   -3.8   -0.2
H     5.6   -2.7   -0.1
H     2.4   -3.1    1.2
H     2.1   -1.3    1.5
H     3.4    0.3    0.6
H     4.1   -0.1   -1.0
H     4.9    0.6    2.7
H     6.7    0.2    2.5
H     5.4   -1.1    2.5
H     6.3    0.6   -1.2
H     7.5    0.7    0.2
