          16
 frame:          812
C     1.2   -0.4   -0.0
C     2.7   -0.3    0.2
C     3.3    1.0   -0.2
O     2.8    2.1    0.6
C     4.8    1.1   -0.1
O     5.4    2.4   -0.3
H     0.8   -1.4    0.3
H     1.0   -0.2   -1.1
H     0.7    0.4    0.6
H     3.2   -1.1   -0.4
H     3.0   -0.5    1.2
H     3.1    1.2   -1.3
H     3.4    2.8    0.5
H     5.3    0.3   -0.7
H     5.1    0.8    1.0
H     5.3    2.5   -1.3
