          17
 frame:         2024
C     2.5   -0.5    1.4
C     2.6    0.1   -0.0
C     3.1    1.5   -0.0
N     4.2    1.8   -0.5
N     4.4    3.2   -0.3
C     3.1    3.8   -0.0
C     2.3    2.6    0.6
H     2.2   -1.6    1.4
H     1.8    0.0    2.0
H     3.5   -0.5    1.9
H     1.6   -0.0   -0.5
H     3.3   -0.5   -0.6
H     4.9    3.6   -1.0
H     2.6    4.2   -0.9
H     3.2    4.7    0.7
H     1.2    2.6    0.4
H     2.4    2.6    1.7
