          17
 frame:         3675
C     2.5   -1.1    1.5
C     3.6   -0.3    0.7
C     3.4    1.2    0.6
C     3.4    1.9    1.9
C     2.5    2.8    2.3
C     4.3    1.9   -0.4
O     5.3    1.3   -0.9
H     2.8   -2.1    1.6
H     1.6   -1.0    1.0
H     2.4   -0.6    2.5
H     3.8   -0.8   -0.3
H     4.6   -0.4    1.2
H     2.3    1.3    0.1
H     4.3    1.8    2.5
H     1.6    3.0    1.7
H     2.6    3.4    3.2
H     4.1    2.9   -0.6
