          13
 frame:         5892
C     3.1   -1.1    0.5
O     2.3    0.0    0.3
C     3.0    1.2    0.2
C     2.5    2.4   -0.0
N     3.6    3.3   -0.1
N     4.8    2.7    0.1
C     4.5    1.4    0.2
H     2.4   -2.0    0.6
H     3.7   -1.1    1.5
H     3.8   -1.3   -0.3
H     1.5    2.8   -0.1
H     3.5    4.3   -0.2
H     5.2    0.7    0.4
