          20
 frame:         2070
C     0.8   -0.7    0.2
C     2.3   -0.5   -0.1
C     2.8   -1.8   -0.8
C     2.5    0.7   -1.0
C     4.0    1.1   -1.3
C     4.7    0.6   -2.5
N     4.2    2.0   -2.4
H     0.4    0.2    0.8
H     0.6   -1.5    0.9
H     0.2   -0.8   -0.7
H     2.9   -0.4    0.8
H     2.2   -1.9   -1.8
H     2.6   -2.7   -0.2
H     3.8   -1.7   -1.1
H     2.1    1.6   -0.5
H     2.0    0.7   -2.0
H     4.6    1.1   -0.4
H     4.1    0.1   -3.3
H     5.7    0.4   -2.5
H     5.0    2.6   -2.1
