          17
 frame:         3032
N     1.7   -0.7    1.7
C     2.0   -0.7    0.3
N     1.7   -1.5   -0.6
C     3.0    0.5   -0.0
C     4.5    0.1    0.2
C     5.4    1.2   -0.3
C     6.3    1.8    0.5
H     1.7    0.2    2.2
H     1.0   -1.3    2.0
H     1.1   -2.3   -0.2
H     2.7    1.4    0.5
H     2.8    0.7   -1.1
H     4.7   -0.8   -0.4
H     4.6   -0.1    1.2
H     5.3    1.5   -1.3
H     6.4    1.5    1.6
H     6.9    2.6    0.1
