          13
 frame:          535
C     1.0    0.0   -0.0
N     2.4   -0.0    0.0
C     3.2    1.1    0.0
C     4.6    0.7    0.0
C     4.5   -0.7    0.0
C     3.2   -1.1    0.0
H     0.6    1.1    0.0
H     0.6   -0.5    0.9
H     0.6   -0.5   -0.9
H     2.8    2.1    0.0
H     5.4    1.3    0.0
H     5.4   -1.4    0.0
H     2.8   -2.1    0.0
