          12
 frame:          375
C     1.1    0.1    0.2
C     2.4    0.0   -0.0
C     3.3   -1.2   -0.1
N     4.7   -0.7   -0.4
C     4.5    0.6   -0.4
N     3.2    1.1   -0.2
H     0.5    1.0    0.2
H     0.5   -0.9    0.3
H     3.0   -1.9   -0.9
H     3.3   -1.8    0.9
H     5.3    1.3   -0.6
H     3.0    2.1   -0.3
