          21
 frame:         1205
C     1.9   -0.6   -1.4
C     2.4   -0.0   -0.0
C     3.2    1.2   -0.1
C     4.5    1.0   -0.9
C     2.5    2.5   -0.6
C     3.1    3.3    0.6
C     3.5    2.0    1.2
H     1.2   -1.5   -1.2
H     2.7   -0.9   -2.0
H     1.3    0.2   -1.9
H     3.0   -0.8    0.5
H     1.5    0.2    0.6
H     5.1    1.9   -0.9
H     4.3    0.7   -1.9
H     5.1    0.2   -0.4
H     1.4    2.4   -0.5
H     2.6    2.9   -1.6
H     4.0    3.9    0.2
H     2.5    4.0    1.1
H     4.5    1.9    1.7
H     2.7    1.7    2.0
