          14
 frame:         2086
C     1.6   -0.7    1.1
C     2.3   -0.3    0.1
C     3.0    1.0   -0.1
C     4.5    0.8   -0.2
C     5.3    1.2   -1.2
C     6.7    1.0   -1.2
N     7.8    0.9   -1.3
H     1.1   -1.6    1.2
H     1.4    0.0    1.9
H     2.5   -1.1   -0.8
H     2.8    1.6    0.8
H     2.7    1.5   -1.0
H     5.0    0.4    0.7
H     4.8    1.6   -2.1
