          20
 frame:         5063
C     1.3   -0.6    0.1
C     2.9   -0.4    0.2
C     3.3    1.0   -0.3
C     4.8    1.2   -0.2
N     5.7    0.3   -1.0
C     5.2    2.7   -0.5
O     6.6    2.9   -0.5
H     1.0   -1.6    0.4
H     1.0   -0.5   -0.9
H     0.8    0.1    0.7
H     3.4   -1.2   -0.4
H     3.2   -0.6    1.2
H     2.8    1.8    0.3
H     3.0    1.1   -1.3
H     5.2    1.0    0.9
H     5.3    0.3   -2.0
H     5.7   -0.6   -0.7
H     4.8    3.4    0.2
H     4.8    2.9   -1.5
H     7.0    2.0   -0.8
