          20
 frame:         1761
C     1.0    0.9   -0.5
C     2.3    0.1   -0.5
C     3.0    0.0    0.9
C     3.5    1.3    1.5
N     4.2    1.1    2.7
C     2.4   -1.0   -1.4
C     3.2    0.2   -1.7
H     0.5    0.9   -1.5
H     1.1    2.0   -0.2
H     0.3    0.5    0.2
H     3.9   -0.7    0.8
H     2.3   -0.5    1.6
H     2.6    2.0    1.6
H     4.2    1.8    0.8
H     3.6    0.7    3.4
H     4.6    2.0    3.1
H     1.5   -1.3   -2.0
H     3.0   -1.9   -1.1
H     4.2    0.2   -1.6
H     2.8    0.9   -2.5
