          13
 frame:         6646
O     2.9   -0.7   -1.2
C     2.3    0.0   -0.1
C     2.8    1.4   -0.0
C     2.1    2.6    0.2
N     3.1    3.6    0.2
C     4.2    3.1   -0.0
N     4.1    1.7   -0.2
H     2.6   -1.6   -1.2
H     2.6   -0.5    0.8
H     1.2    0.0   -0.1
H     1.1    2.8    0.4
H     5.2    3.6   -0.1
H     4.8    1.1   -0.5
