          17
 frame:         3834
C     1.4   -0.6    0.2
C     2.9   -0.5    0.3
C     3.4    0.8   -0.1
C     4.9    0.9   -0.2
O     5.5    0.0   -1.1
C     5.4    2.3   -0.5
O     6.1    2.6   -1.4
H     1.0   -1.6    0.6
H     1.0   -0.5   -0.8
H     0.9    0.1    0.9
H     3.3   -1.3   -0.4
H     3.3   -0.8    1.3
H     3.0    1.6    0.6
H     3.0    1.1   -1.1
H     5.3    0.7    0.8
H     6.0    0.6   -1.7
H     5.0    3.1    0.2
