          16
 frame:          219
C     0.8    1.3   -0.6
C    -0.3    1.0    0.3
C    -1.4    0.0   -0.1
C    -0.8   -1.4   -0.0
C     0.7   -1.2   -0.1
C     1.0    0.2    0.3
H     0.6    1.1   -1.7
H     1.3    2.3   -0.5
H    -0.6    1.7    1.1
H    -2.3    0.1    0.4
H    -1.7    0.2   -1.2
H    -1.0   -1.8    1.0
H    -1.2   -2.1   -0.7
H     1.3   -1.9    0.5
H     1.1   -1.3   -1.2
H     1.7    0.4    1.1
