          20
 frame:         2466
C     3.5   -0.7   -0.5
C     2.7    0.1    0.6
N     3.2    1.5    0.8
C     2.3    2.2    1.7
C     4.5    1.6    1.2
C     5.6    1.7    0.2
C     5.2    2.9    1.0
H     3.0   -1.7   -0.6
H     4.5   -0.8   -0.3
H     3.4   -0.1   -1.5
H     2.8   -0.5    1.6
H     1.6    0.1    0.4
H     1.2    2.2    1.3
H     2.6    3.2    1.8
H     2.2    1.7    2.7
H     4.8    1.1    2.2
H     5.3    1.7   -0.8
H     6.6    1.2    0.4
H     5.9    3.2    1.8
H     4.7    3.7    0.5
