          17
 frame:         4250
C     4.1   -0.5    2.1
O     4.9   -0.1    1.0
C     4.7    1.3    0.6
O     5.1    2.2    1.6
C     6.5    2.2    1.8
C     5.4    1.5   -0.8
C     5.9    0.6   -1.5
H     4.3   -1.5    2.3
H     3.0   -0.3    1.8
H     4.3    0.1    3.0
H     3.6    1.5    0.5
H     6.7    2.9    2.6
H     7.1    2.5    0.9
H     6.8    1.2    2.2
H     5.3    2.5   -1.1
H     6.0   -0.5   -1.2
H     6.4    0.8   -2.5
