          14
 frame:         1957
C     2.6   -1.2    0.4
C     2.2    0.1    0.2
C     3.0    1.2    0.1
C     2.5    2.5   -0.1
N     3.6    3.4   -0.1
C     4.8    2.7    0.1
C     4.4    1.4    0.2
H     1.9   -2.0    0.4
H     3.7   -1.4    0.5
H     1.1    0.2    0.1
H     1.5    2.9   -0.2
H     3.5    4.4   -0.2
H     5.7    3.2    0.1
H     5.2    0.6    0.3
