          12
 frame:         6524
O     1.2   -0.1    0.8
C     2.3   -0.0    0.2
C     3.1    1.3   -0.1
C     4.4    0.8   -0.7
N     4.3   -0.7   -0.7
C     3.2   -1.2   -0.2
O     2.9   -2.4   -0.1
H     3.3    1.8    0.8
H     2.5    1.9   -0.7
H     4.5    1.2   -1.8
H     5.3    1.1   -0.2
H     5.1   -1.2   -1.1
