          15
 frame:         6841
O     0.7    1.5   -0.2
N     2.0    1.0   -0.5
C     2.9    1.8    0.0
C     4.3    1.4   -0.2
C     5.2    2.5   -0.8
C     6.3    2.1    0.3
N     5.1    1.5    1.1
H     0.1    0.8   -0.6
H     2.6    2.7    0.6
H     4.4    0.5   -0.7
H     4.9    3.5   -0.7
H     5.5    2.3   -1.9
H     7.0    1.3   -0.1
H     6.8    2.9    0.8
H     5.3    0.6    1.5
