          17
 frame:         6201
N     2.6   -1.5   -0.4
C     2.0   -0.2   -0.4
C     2.9    0.9    0.1
C     3.6    0.6    1.4
N     2.7    0.1    2.4
C     3.5    1.8   -0.9
O     2.4    2.2   -0.1
H     2.1   -2.2   -0.9
H     2.6   -1.9    0.6
H     1.1   -0.1    0.1
H     1.7    0.0   -1.5
H     4.2    1.5    1.6
H     4.4   -0.2    1.2
H     2.1    0.9    2.6
H     3.2   -0.1    3.3
H     3.4    1.7   -1.9
H     4.5    2.3   -0.6
