          16
 frame:         6234
N     2.4   -0.6   -1.4
C     2.4   -0.0   -0.0
C     3.3    1.2    0.0
O     2.7    2.4   -0.6
C     3.1    3.2    0.5
C     3.4    2.0    1.4
O     4.6    1.9    2.1
H     1.7   -1.3   -1.4
H     3.3   -1.0   -1.6
H     2.8   -0.7    0.8
H     1.4    0.3    0.2
H     4.3    1.0   -0.4
H     4.0    3.8    0.3
H     2.3    3.9    0.9
H     2.6    1.7    2.1
H     5.3    2.1    1.5
