          21
 frame:         1196
C     0.9    0.0   -0.1
C     2.5   -0.0    0.0
C     3.0    0.1   -1.4
C     3.0    1.1    0.9
C     4.5    0.7    1.3
C     4.4   -0.9    1.2
C     3.0   -1.2    0.8
H     0.5   -0.0    1.0
H     0.6   -0.8   -0.6
H     0.6    0.9   -0.5
H     4.1    0.0   -1.4
H     2.7    1.0   -1.9
H     2.7   -0.8   -2.0
H     2.4    1.3    1.8
H     3.0    2.1    0.3
H     5.2    1.1    0.6
H     4.7    1.1    2.3
H     5.2   -1.2    0.5
H     4.7   -1.3    2.2
H     3.0   -2.2    0.2
H     2.4   -1.4    1.7
