          19
 frame:         1870
C     0.9   -0.2   -0.1
C     2.5   -0.2   -0.1
N     3.2   -0.6   -1.3
C     3.2    0.8   -0.8
C     4.5    1.4   -0.4
C     4.4    2.6    0.6
N     5.7    3.2    0.9
H     0.5    0.3    0.8
H     0.6   -1.2   -0.0
H     0.6    0.2   -1.0
H     2.9   -0.6    0.8
H     2.6   -0.7   -2.1
H     2.6    1.6   -1.4
H     5.1    1.7   -1.2
H     5.1    0.6    0.1
H     3.8    2.3    1.5
H     3.8    3.4    0.1
H     6.2    2.5    1.4
H     5.5    4.0    1.6
