          15
 frame:         1027
C     0.8   -0.0    0.4
C     2.4   -0.1    0.2
C     3.0    1.3    0.2
O     4.4    1.2   -0.0
N     5.0    2.4    0.0
C     6.3    2.3   -0.2
H     0.4   -1.0    0.4
H     0.3    0.6   -0.3
H     0.6    0.4    1.4
H     2.5   -0.5   -0.8
H     2.9   -0.7    0.9
H     2.9    1.8    1.2
H     2.5    2.0   -0.5
H     6.8    3.3   -0.2
H     6.8    1.4   -0.4
