          17
 frame:         3578
C     0.9    0.0   -0.4
C     2.4   -0.3    0.1
C     2.4   -1.6    0.8
C     3.4    0.4   -0.3
C     4.8    0.2    0.0
C     5.9    0.7   -0.8
O     5.6    1.4    0.4
H     0.9    0.9   -1.0
H     0.3    0.2    0.5
H     0.5   -0.8   -1.0
H     1.8   -1.6    1.7
H     3.5   -1.8    1.2
H     2.1   -2.5    0.2
H     3.2    1.3   -0.9
H     5.1   -0.7    0.6
H     5.6    1.3   -1.7
H     6.9    0.2   -0.9
