          15
 frame:         3549
C     1.0   -0.0    0.0
C     2.4    0.0   -0.0
C     3.6    0.1   -0.1
C     5.1    0.1   -0.1
C     5.8    1.1    0.8
C     6.6   -0.1    1.3
O     5.7   -1.0    0.6
H     0.5    1.0    0.1
H     0.6   -0.6    0.9
H     0.6   -0.5   -0.9
H     5.4    0.1   -1.1
H     5.2    1.6    1.6
H     6.4    1.9    0.3
H     7.7   -0.1    0.9
H     6.6   -0.3    2.4
