          15
 frame:         1785
C     1.0    0.0    0.0
C     2.5   -0.0    0.0
C     3.3   -1.1   -0.1
C     4.7   -0.7   -0.1
N     5.7   -1.5   -0.2
N     4.7    0.7    0.1
C     3.3    1.2    0.1
H     0.6   -1.0   -0.0
H     0.6    0.6   -0.8
H     0.6    0.5    0.9
H     3.0   -2.1   -0.1
H     6.6   -1.0   -0.2
H     5.5    1.2   -0.2
H     3.2    1.8   -0.9
H     3.1    1.9    0.9
