          16
 frame:         6143
N     0.9    0.3   -0.2
C     2.3    0.1    0.1
C     2.5    0.1    1.6
O     1.8   -0.9    2.2
C     3.1   -0.8   -0.8
C     3.3    0.7   -0.8
O     4.5    1.3   -0.2
H     0.6   -0.1   -1.1
H     0.6    1.3   -0.1
H     2.3    1.1    2.0
H     3.6   -0.1    1.8
H     0.9   -0.9    1.8
H     2.6   -1.2   -1.6
H     3.9   -1.4   -0.3
H     3.0    1.3   -1.7
H     5.2    1.1   -0.8
