          15
 frame:         5161
C     1.1   -0.7   -1.0
C     2.3   -0.4   -0.1
C     2.6   -1.2    0.9
N     3.0    0.8   -0.4
C     3.1    1.5   -1.5
N     4.0    2.6   -1.4
O     2.5    1.3   -2.6
H     1.4   -0.8   -2.1
H     0.4    0.2   -1.0
H     0.5   -1.5   -0.7
H     2.0   -2.1    1.1
H     3.5   -1.0    1.5
H     3.8    0.9    0.3
H     4.0    3.1   -0.5
H     3.9    3.3   -2.2
