          14
 frame:         4896
C     0.9   -0.1    0.0
C     2.4    0.1    0.0
C     3.2    1.2   -0.1
N     2.9    2.5   -0.3
C     4.6    0.7   -0.1
C     4.5   -0.7    0.0
O     3.2   -1.1    0.1
H     0.5    0.9    0.2
H     0.6   -0.8    0.8
H     0.6   -0.5   -0.9
H     3.5    3.2    0.3
H     1.9    2.7   -0.0
H     5.5    1.3   -0.1
H     5.2   -1.5    0.1
