          12
 frame:         5865
C     0.7   -0.1    0.1
N     2.1    0.0    0.1
O     2.8   -1.2    0.2
C     3.0    1.1   -0.1
O     4.2    0.9   -0.1
C     2.3    2.4   -0.2
C     1.9    3.5   -0.3
H     0.3    0.9    0.1
H     0.4   -0.5    1.1
H     0.3   -0.7   -0.7
H     3.8   -0.8    0.1
H     1.5    4.5   -0.4
