          19
 frame:         3874
C     0.8   -0.0   -0.1
C     2.3   -0.2    0.1
C     2.6   -1.0    1.4
O     2.8   -1.0   -1.0
C     3.0    1.2    0.2
C     2.9    2.0   -1.1
C     3.8    2.1   -2.0
H     0.5    0.5   -1.0
H     0.3    0.6    0.8
H     0.3   -1.0   -0.1
H     2.2   -0.5    2.3
H     3.7   -1.1    1.5
H     2.1   -2.0    1.3
H     2.8   -0.4   -1.8
H     4.1    0.9    0.3
H     2.7    1.7    1.0
H     1.9    2.5   -1.3
H     4.8    1.6   -1.9
H     3.7    2.6   -3.0
