          15
 frame:         5067
C     1.1   -0.0   -0.1
C     2.6    0.1    0.1
C     3.3   -1.1    0.2
C     4.6   -1.3    0.4
N     5.2   -2.6    0.7
N     3.0    1.3    0.0
O     4.4    1.4    0.2
H     0.6    1.0   -0.2
H     0.6   -0.5    0.7
H     0.8   -0.6   -1.0
H     2.6   -2.0    0.2
H     5.3   -0.5    0.5
H     4.7   -3.4    0.5
H     6.2   -2.7    0.5
H     4.5    2.4    0.2
