          13
 frame:         7196
O     1.2   -0.5    0.7
S     2.4   -0.1   -0.1
O     2.3    0.2   -1.5
C     3.2    1.3    0.8
C     4.5    0.7    1.3
C     4.3   -0.8    1.3
O     3.6   -1.1    0.1
H     2.5    1.6    1.6
H     3.4    2.1    0.1
H     5.4    0.9    0.7
H     4.8    1.0    2.3
H     5.2   -1.4    1.3
H     3.7   -1.2    2.2
