          13
 frame:         3192
C     1.0    0.0   -0.2
C     2.3   -0.1    0.0
C     3.2   -1.2    0.2
C     4.5   -0.8    0.4
C     4.6    0.7    0.5
C     3.2    1.2    0.2
O     2.8    2.3    0.2
H     0.5    1.0   -0.3
H     0.4   -0.9   -0.3
H     2.9   -2.2    0.1
H     5.3   -1.5    0.6
H     5.0    1.0    1.5
H     5.3    1.1   -0.3
