          15
 frame:         5588
C     1.1    0.3   -0.3
N     2.4   -0.1    0.1
C     3.1   -1.0   -0.8
C     3.5    0.4   -0.9
C     4.7    0.9   -0.3
N     5.4    1.8   -0.9
O     6.6    2.1   -0.2
H     0.9    1.3    0.1
H     0.4   -0.4    0.2
H     0.9    0.3   -1.4
H     2.5   -1.4   -1.7
H     3.7   -1.8   -0.3
H     3.1    0.9   -1.8
H     5.1    0.4    0.7
H     7.0    2.9   -0.7
