          13
 frame:         3818
C     1.0    0.0    0.1
C     2.4    0.1   -0.0
C     3.7    0.1   -0.1
C     5.1    0.1   -0.2
O     5.7   -0.7   -0.9
C     5.8    1.2    0.6
O     5.0    1.9    1.6
H     0.6    0.9   -0.4
H     0.7   -0.0    1.1
H     0.6   -0.9   -0.5
H     6.2    2.0   -0.2
H     6.7    0.8    1.1
H     4.1    1.9    1.3
