          14
 frame:          459
C     1.1    0.1    0.2
C     2.5   -0.1   -0.0
C     3.1   -1.3    0.0
C     3.3    1.1   -0.3
N     4.6    1.2   -0.3
N     5.2    2.3   -0.7
H     0.8    0.8    1.0
H     0.6   -0.9    0.3
H     0.6    0.6   -0.7
H     2.5   -2.2    0.2
H     4.2   -1.4   -0.1
H     2.7    2.1   -0.5
H     6.1    2.4   -0.3
H     4.7    3.2   -0.5
