          16
 frame:         5687
C     1.7   -0.4    1.5
N     3.0    0.1    1.4
C     3.1    1.4    0.8
C     2.9    2.5    1.8
C     2.2    3.6    1.6
C     4.5    1.6    0.1
O     5.3    0.7   -0.1
H     1.7   -1.4    1.9
H     1.1   -0.4    0.5
H     1.1    0.2    2.2
H     3.6   -0.5    0.8
H     2.4    1.6   -0.0
H     3.5    2.4    2.7
H     1.6    3.7    0.8
H     2.1    4.4    2.4
H     4.7    2.7   -0.3
