          13
 frame:         3062
C    -0.9    0.0   -1.3
C    -0.7    1.0   -0.1
O    -1.3    0.0    0.8
C    -0.7   -1.0   -0.1
C     0.8   -0.7    0.3
O     1.6    0.0   -0.7
C     0.8    0.7    0.3
H    -1.9    0.0   -1.6
H    -0.2    0.0   -2.1
H    -1.1    2.0   -0.1
H    -1.1   -2.0   -0.1
H     1.4   -1.4    1.0
H     1.4    1.4    1.0
