          17
 frame:         3090
C     1.9    0.1   -0.7
O     1.7   -0.1    0.7
C     0.5    0.1   -0.2
C    -0.4    1.3    0.0
C    -1.8    0.7   -0.1
C    -1.7   -0.8    0.3
C    -0.4   -1.2   -0.4
H     2.3    1.1   -0.9
H     2.4   -0.7   -1.2
H    -0.2    1.6    1.1
H    -0.2    2.1   -0.6
H    -2.5    1.3    0.5
H    -2.1    0.8   -1.2
H    -2.5   -1.4   -0.1
H    -1.6   -0.9    1.4
H    -0.5   -1.4   -1.5
H     0.1   -2.1    0.1
