          21
 frame:         1484
C     3.1   -1.0   -0.9
C     2.5   -0.1    0.2
C     3.0    1.4    0.1
C     2.3    2.2    1.2
C     4.5    1.5    0.3
C     5.4    1.9   -0.6
C     6.9    2.0   -0.4
H     2.7   -2.0   -0.8
H     4.2   -1.0   -0.9
H     2.8   -0.6   -1.9
H     2.8   -0.5    1.2
H     1.4   -0.1    0.1
H     2.8    1.8   -0.9
H     2.6    1.9    2.2
H     1.2    2.2    1.0
H     2.6    3.3    1.1
H     4.9    1.1    1.2
H     5.0    2.3   -1.6
H     7.2    1.6    0.6
H     7.2    3.1   -0.5
H     7.4    1.5   -1.2
