          18
 frame:          751
C     1.0   -0.1    0.0
C     2.5   -0.0   -0.0
C     3.0   -0.8   -1.2
C     3.0    1.4    0.0
C     2.5    2.3    1.2
O     4.5    1.5   -0.0
H     0.5    0.3    0.9
H     0.6   -1.1   -0.1
H     0.5    0.5   -0.9
H     2.9   -0.5    0.9
H     2.7   -0.4   -2.2
H     2.8   -1.8   -1.2
H     4.2   -0.7   -1.3
H     2.7    1.9   -0.9
H     2.7    1.8    2.1
H     1.4    2.4    1.1
H     3.0    3.3    1.2
H     4.8    1.1    0.8
