          21
 frame:         3713
C     0.9    1.8    1.0
C     2.5    1.9    1.0
C     3.1    1.2   -0.2
C     4.6    1.4   -0.3
C     5.2    0.5   -1.4
O     5.0    2.8   -0.4
C     6.3    3.1   -0.1
H     0.5    2.3    1.8
H     0.6    0.8    1.0
H     0.5    2.3    0.1
H     2.9    1.5    1.9
H     2.8    3.0    1.0
H     2.7    1.7   -1.2
H     2.9    0.2   -0.2
H     5.1    1.0    0.7
H     4.8    0.8   -2.4
H     5.0   -0.6   -1.3
H     6.3    0.6   -1.4
H     6.4    4.2   -0.1
H     7.0    2.6   -0.8
H     6.5    2.8    0.9
