          18
 frame:         2902
N     3.0   -1.1   -0.6
C     2.5    0.1    0.2
C     3.3    1.3   -0.0
C     3.3    1.9   -1.5
C     3.3    3.4   -1.3
C     3.1    3.7   -0.1
C     2.9    2.5    0.8
H     2.4   -1.9   -0.5
H     3.9   -1.3   -0.3
H     2.5   -0.2    1.3
H     1.5    0.3   -0.1
H     4.4    1.1    0.2
H     2.4    1.5   -2.0
H     4.2    1.5   -2.1
H     3.5    4.0   -2.1
H     3.0    4.8    0.3
H     3.4    2.6    1.8
H     1.8    2.4    1.1
