          16
 frame:          120
C     1.0   -0.1    0.1
C     2.5    0.0    0.2
N     3.0    1.4    0.1
C     2.6    2.2    1.2
C     4.5    1.4   -0.1
H     0.7   -1.1    0.1
H     0.6    0.4   -0.8
H     0.5    0.4    1.0
H     2.9   -0.5   -0.6
H     2.8   -0.5    1.1
H     1.5    2.3    1.3
H     3.0    3.2    1.1
H     3.0    1.8    2.2
H     4.7    0.8   -0.9
H     5.0    1.0    0.8
H     4.8    2.4   -0.2
