          19
 frame:         2867
N     0.9    0.0    0.0
C     2.4    0.0    0.0
C     3.0    1.1    0.9
C     4.5    0.7    1.1
C     4.3   -0.9    1.4
N     5.6   -1.6    1.0
C     3.0   -1.3    0.6
H     0.6   -0.7   -0.6
H     0.6    0.9   -0.4
H     2.9    0.2   -1.0
H     2.4    1.2    1.9
H     3.0    2.1    0.5
H     5.1    0.8    0.2
H     5.0    1.1    2.0
H     4.2   -1.1    2.5
H     5.7   -1.5    0.0
H     5.5   -2.6    1.2
H     3.2   -2.0   -0.1
H     2.2   -1.7    1.3
