          15
 frame:         1038
C     0.9    0.1    0.1
C     2.4    0.0   -0.1
O     2.6   -0.6   -1.4
C     3.1    1.4   -0.0
C     3.9    1.7    1.2
N     4.6    1.2   -0.1
H     0.7    0.6    1.1
H     0.4   -0.8   -0.0
H     0.5    0.8   -0.7
H     2.9   -0.6    0.6
H     3.6   -0.6   -1.6
H     2.7    2.2   -0.6
H     4.0    1.0    2.0
H     4.0    2.8    1.4
H     5.0    2.0   -0.6
