          17
 frame:          589
N     1.0    0.0   -0.1
C     2.5   -0.0    0.0
C     3.0    1.1    0.9
C     4.4    0.7    1.3
C     4.4   -0.9    1.3
C     3.0   -1.2    0.8
H     0.7   -0.8   -0.7
H     0.7    0.9   -0.6
H     3.0    0.0   -1.0
H     2.4    1.2    1.8
H     3.0    2.1    0.4
H     5.1    1.0    0.5
H     4.8    1.1    2.2
H     5.2   -1.3    0.7
H     4.5   -1.3    2.3
H     3.0   -2.2    0.1
H     2.3   -1.4    1.6
