          18
 frame:         5319
C     2.3   -0.5   -1.4
C     2.4    0.1    0.0
N     3.2    1.3    0.1
C     2.6    2.5   -0.5
C     3.3    3.3    0.6
O     4.5    3.9    0.3
C     3.3    2.0    1.4
H     1.7   -1.4   -1.4
H     3.3   -0.7   -1.8
H     1.8    0.2   -2.1
H     2.9   -0.7    0.7
H     1.4    0.2    0.4
H     1.5    2.6   -0.5
H     3.0    2.8   -1.6
H     2.7    4.2    1.1
H     5.1    3.2   -0.1
H     4.2    1.8    1.9
H     2.4    1.9    2.0
