          16
 frame:         6674
O     2.4   -0.3   -1.5
C     2.3    0.1   -0.1
C     3.3    1.3   -0.0
N     3.4    1.7    1.4
C     3.2    3.2    1.5
C     2.8    3.6    0.1
C     2.8    2.5   -0.7
H     1.7   -1.0   -1.6
H     2.7   -0.7    0.5
H     1.3    0.4    0.2
H     4.3    1.0   -0.4
H     4.2    1.4    1.8
H     4.2    3.7    1.8
H     2.5    3.5    2.3
H     2.4    4.6   -0.1
H     2.5    2.5   -1.8
