          14
 frame:         1555
C     2.5    0.2    1.0
C     2.1   -0.1   -0.5
C     2.5    1.4   -0.8
C     2.6    2.6   -1.5
N     3.0    3.5   -0.6
C     3.2    3.0    0.7
C     2.8    1.7    0.6
H     3.4   -0.3    1.4
H     1.7    0.1    1.7
H     1.1   -0.3   -0.7
H     2.8   -0.8   -1.0
H     2.5    2.9   -2.5
H     3.2    4.5   -0.8
H     3.5    3.6    1.5
