          15
 frame:         4116
C     2.8   -1.0   -0.4
O     2.3    0.3   -0.1
C     3.4    1.3   -0.1
C     3.6    1.9   -1.5
C     3.0    3.2   -1.4
C     2.6    3.4   -0.1
O     2.9    2.3    0.8
H     1.9   -1.7   -0.3
H     3.6   -1.3    0.2
H     3.2   -1.1   -1.5
H     4.3    0.8    0.4
H     3.2    1.2   -2.2
H     4.7    2.0   -1.7
H     2.8    3.9   -2.2
H     2.1    4.2    0.4
