          19
 frame:         3448
C     1.8   -0.5    1.2
C     2.1    0.2   -0.1
C     3.2    1.2   -0.0
C     3.4    2.3   -1.1
C     2.9    2.6    0.4
O     3.8    3.2    1.3
C     3.8    4.7    1.1
H     0.9   -1.2    1.1
H     1.4    0.3    1.9
H     2.6   -1.0    1.6
H     1.2    0.7   -0.6
H     2.4   -0.6   -0.9
H     4.2    0.8    0.4
H     2.6    2.4   -1.9
H     4.4    2.6   -1.3
H     1.9    2.9    0.5
H     4.5    5.1    1.8
H     2.8    5.1    1.3
H     4.1    5.0    0.1
