          17
 frame:         4294
O     1.2    0.0    0.6
C     2.5    0.0    0.1
C     2.8   -1.3   -0.6
C     2.5   -1.0   -2.1
C     3.5   -0.4   -2.9
C     2.5    0.5   -2.3
C     2.8    1.1   -0.9
H     1.0    0.9    0.9
H     3.2    0.2    1.0
H     2.2   -2.1   -0.1
H     3.9   -1.6   -0.5
H     1.7   -1.7   -2.5
H     4.5   -0.3   -2.5
H     3.5   -0.5   -4.0
H     1.7    0.9   -2.9
H     3.8    1.5   -0.9
H     2.2    2.0   -0.7
