          17
 frame:         4330
O     1.1    0.1    0.3
C     2.3    0.0    0.1
C     3.0   -1.3    0.0
C     4.0   -1.3   -1.2
C     4.9   -0.1   -1.2
C     4.1    1.2   -1.2
C     3.1    1.3   -0.0
H     2.3   -2.1   -0.0
H     3.6   -1.4    0.9
H     4.6   -2.2   -1.2
H     3.4   -1.3   -2.1
H     5.6   -0.1   -0.3
H     5.6   -0.1   -2.1
H     4.7    2.1   -1.2
H     3.5    1.3   -2.2
H     3.7    1.4    0.9
H     2.4    2.1   -0.1
