          17
 frame:         4164
C     2.8   -0.1   -0.2
O     2.0    1.0   -0.1
C     2.5    2.3   -0.0
C     1.5    3.3    0.2
C     3.9    2.5   -0.2
C     4.6    3.8   -0.1
C     5.9    3.9   -0.3
H     2.1   -1.0   -0.2
H     3.5   -0.2    0.6
H     3.3   -0.1   -1.2
H     1.0    3.1    1.1
H     0.8    3.2   -0.6
H     1.9    4.3    0.2
H     4.5    1.6   -0.3
H     3.9    4.6    0.0
H     6.6    3.1   -0.4
H     6.3    4.9   -0.2
