          16
 frame:         6135
N     0.9    0.2    0.1
C     2.3   -0.0    0.0
C     3.2    0.9    0.9
O     3.8   -0.2    1.6
C     2.9   -1.1    0.9
C     3.7   -2.2    0.2
O     4.5   -3.0    1.1
H     0.4   -0.6   -0.4
H     0.6    1.0   -0.4
H     2.7   -0.0   -1.0
H     2.5    1.5    1.6
H     3.9    1.6    0.4
H     2.2   -1.6    1.6
H     4.4   -1.8   -0.6
H     3.1   -2.9   -0.3
H     5.0   -2.4    1.6
