          15
 frame:         1520
C    -1.1    0.0   -1.0
C    -0.6    1.0    0.1
C    -1.0   -0.1    1.1
C    -0.6   -1.1    0.0
C     0.9   -1.1   -0.0
N     1.6    0.0   -0.0
N     0.8    1.2    0.1
H    -2.1    0.0   -1.1
H    -0.5    0.1   -2.0
H    -1.1    2.0    0.1
H    -0.5   -0.1    2.1
H    -2.1   -0.1    1.3
H    -1.1   -2.1   -0.0
H     1.5   -2.0   -0.1
H     1.3    1.9   -0.3
