          19
 frame:         3607
C     0.9    0.9   -1.1
C     2.4    0.8   -1.1
C     3.2    1.3   -0.1
C     4.7    1.1   -0.1
C     5.1    0.5    1.2
C     5.3    0.4   -1.3
O     5.2    2.5    0.0
H     0.5    1.5   -2.0
H     0.5    1.5   -0.2
H     0.4   -0.0   -1.1
H     2.8    0.2   -1.9
H     2.8    1.8    0.7
H     4.7    1.0    2.1
H     6.2    0.5    1.3
H     4.8   -0.6    1.3
H     5.0    0.9   -2.2
H     5.0   -0.6   -1.3
H     6.4    0.5   -1.2
H     4.9    3.0   -0.7
