          12
 frame:         2779
C     1.8   -0.4   -0.6
N     2.5    0.7   -0.8
N     3.0    1.3    0.5
C     4.3    1.9    0.2
C     3.1    2.8    0.2
C     2.7    3.6    1.3
N     2.4    4.3    2.2
H     1.4   -0.9   -1.4
H     1.6   -0.7    0.5
H     4.8    1.8   -0.7
H     4.9    1.9    1.1
H     2.7    3.1   -0.8
