          16
 frame:         2849
N     1.1    0.0    0.1
C     2.5   -0.1   -0.0
C     2.9   -1.3   -0.9
C     3.4   -0.7   -2.2
C     3.4    0.7   -2.1
C     3.0    1.1   -0.8
C     3.0    2.4   -0.4
H     0.8    0.9    0.5
H     0.7   -0.7    0.8
H     3.1   -0.1    1.0
H     2.1   -1.9   -1.0
H     3.7   -1.9   -0.4
H     3.7   -1.3   -3.0
H     3.8    1.3   -3.0
H     2.7    2.7    0.6
H     3.4    3.2   -1.0
