          13
 frame:         5563
C     1.1   -0.1    0.6
C     2.5    0.0   -0.0
O     2.5   -0.4   -1.4
N     2.6   -1.9   -1.4
C     2.6   -2.3   -2.6
C     3.0    1.4    0.0
N     3.4    2.5    0.1
H     1.1    0.2    1.6
H     0.8   -1.1    0.6
H     0.4    0.5    0.0
H     3.2   -0.6    0.6
H     2.7   -3.4   -2.7
H     2.5   -1.7   -3.5
