          18
 frame:         2680
C     1.1   -0.3   -0.0
N     2.5   -0.0    0.1
C     3.0    1.4    0.0
C     2.5    2.1   -1.3
C     2.5    2.1    1.3
C     4.4    1.4   -0.0
C     5.6    1.4   -0.0
H     0.9   -1.4    0.0
H     0.6    0.1   -0.9
H     0.5    0.2    0.8
H     3.0   -0.6   -0.6
H     2.8    1.6   -2.2
H     2.9    3.2   -1.3
H     1.4    2.2   -1.3
H     2.8    1.6    2.2
H     1.4    2.2    1.3
H     2.9    3.2    1.3
H     6.7    1.4   -0.1
