          18
 frame:         5875
C     1.6   -0.6   -1.0
O     2.2   -0.0    0.2
C     3.0    1.1   -0.1
C     4.2    0.8   -1.0
C     2.3    2.5   -0.5
N     2.9    3.2    0.7
C     3.4    1.9    1.2
H     0.9   -1.3   -0.6
H     2.3   -1.1   -1.6
H     1.0    0.2   -1.5
H     4.9    1.7   -1.1
H     3.9    0.5   -2.0
H     4.8    0.0   -0.5
H     1.2    2.4   -0.4
H     2.5    2.9   -1.5
H     3.6    3.8    0.3
H     4.5    1.9    1.5
H     2.8    1.5    2.1
