          15
 frame:         1902
C     1.0    0.0    0.0
C     2.5    0.1    0.0
N     3.1    1.2    0.2
C     4.5    1.1    0.0
C     5.2    0.0   -0.1
C     4.6   -1.3    0.1
N     3.1   -1.1   -0.2
H     0.6   -1.0    0.1
H     0.6    0.5   -0.9
H     0.6    0.6    0.9
H     5.0    2.1   -0.1
H     6.3    0.1   -0.2
H     5.0   -2.0   -0.7
H     4.8   -1.8    1.1
H     2.6   -2.0   -0.2
