          17
 frame:         4400
O     3.0   -1.0   -0.6
C     2.5    0.1    0.2
C     3.3    1.3   -0.0
C     3.3    1.9   -1.5
C     3.3    3.4   -1.3
C     3.0    3.7   -0.1
C     2.8    2.5    0.8
H     2.5   -1.8   -0.5
H     2.4   -0.2    1.2
H     1.4    0.3   -0.2
H     4.3    1.1    0.2
H     2.4    1.5   -2.1
H     4.2    1.5   -2.1
H     3.5    4.1   -2.1
H     2.9    4.8    0.3
H     3.4    2.6    1.8
H     1.7    2.4    1.1
