          13
 frame:         1023
C     0.9   -0.1   -0.0
C     2.5   -0.0    0.0
C     3.0    1.4    0.1
O     2.5    2.2    1.2
C     4.5    1.4   -0.0
N     5.6    1.4   -0.1
H     0.6   -1.1   -0.0
H     0.6    0.4   -0.9
H     0.5    0.4    0.8
H     2.9   -0.5   -0.8
H     2.9   -0.6    0.9
H     2.6    2.0   -0.8
H     3.0    1.8    2.0
