          18
 frame:         2975
N     0.9    0.3    0.3
C     2.3   -0.1    0.2
C     3.1    1.2   -0.0
C     4.6    1.0   -0.1
C     5.3    0.9   -1.2
C     5.3    0.8    1.2
C     4.8    0.9    2.5
H     0.3   -0.6    0.5
H     0.5    0.7   -0.6
H     2.5   -0.7   -0.7
H     2.6   -0.6    1.1
H     2.9    1.9    0.8
H     2.8    1.7   -1.0
H     4.8    1.1   -2.2
H     6.4    0.7   -1.2
H     6.4    0.5    1.1
H     3.8    1.1    2.6
H     5.4    0.7    3.3
