          15
 frame:         2307
C     0.9   -0.1    0.1
C     2.4   -0.0   -0.0
C     3.6    0.0   -0.1
C     5.0    0.1   -0.2
N     5.5    1.4    0.2
C     6.8    1.6    0.7
N     7.5    2.7    0.8
H     0.5    0.9    0.1
H     0.6   -0.7    1.0
H     0.5   -0.6   -0.8
H     5.3   -0.1   -1.2
H     5.5   -0.6    0.4
H     5.1    2.2   -0.3
H     7.3    0.7    1.1
H     7.0    3.5    0.5
