          14
 frame:         5024
C     0.9   -0.0   -0.0
C     2.4   -0.0   -0.0
C     3.6    0.0    0.0
C     5.1    0.0    0.0
C     5.6    1.4   -0.0
N     6.4    1.8    0.9
O     6.8    3.2    0.7
H     0.5    1.0   -0.0
H     0.6   -0.6    0.9
H     0.6   -0.6   -0.9
H     5.5   -0.5   -0.9
H     5.5   -0.5    0.9
H     5.3    2.1   -0.8
H     7.4    3.3    1.4
