          19
 frame:         2530
C     3.1   -1.3   -0.8
C     2.6   -0.3    0.2
N     2.6   -0.7    1.6
C     3.3    1.1    0.1
N     2.6    2.2    0.9
C     4.8    1.0    0.5
C     5.8    1.0   -0.4
H     3.0   -0.9   -1.8
H     2.5   -2.2   -0.7
H     4.2   -1.5   -0.6
H     1.5   -0.1   -0.0
H     3.5   -1.1    1.8
H     1.9   -1.4    1.8
H     3.2    1.4   -1.0
H     2.5    1.8    1.8
H     1.7    2.4    0.5
H     4.9    1.0    1.6
H     5.6    1.1   -1.4
H     6.8    0.9   -0.0
