          19
 frame:         2528
C     1.0    0.0    0.1
C     2.5   -0.1    0.0
N     2.9   -0.9    1.1
C     3.0   -0.8   -1.3
N     2.4   -2.1   -1.4
C     3.1    1.3    0.0
C     3.9    1.9    1.0
H     0.6    0.7   -0.8
H     0.6    0.5    1.0
H     0.5   -1.0   -0.1
H     2.5   -0.6    2.0
H     4.0   -0.9    1.3
H     4.1   -0.8   -1.2
H     2.7   -0.1   -2.1
H     2.6   -2.6   -0.6
H     2.8   -2.6   -2.2
H     2.8    1.9   -0.8
H     4.2    1.3    1.9
H     4.2    2.9    0.9
