          19
 frame:         3712
C     0.6    0.5   -1.0
C     1.9   -0.3   -0.5
C     3.0    0.7   -0.2
C     4.3    0.1    0.3
C     4.8    0.3    1.6
O     4.8   -0.8   -0.6
C     6.0   -1.5   -0.2
H    -0.2   -0.3   -1.2
H     0.8    0.9   -2.0
H     0.3    1.2   -0.3
H     2.2   -1.0   -1.2
H     1.6   -0.8    0.5
H     2.7    1.5    0.5
H     3.3    1.2   -1.2
H     4.3    1.0    2.2
H     5.7   -0.2    1.9
H     6.2   -2.1   -1.1
H     5.8   -2.2    0.6
H     6.8   -0.8    0.0
