          19
 frame:         3629
C     0.9   -0.1    0.2
C     2.5   -0.1    0.1
C     3.1   -1.4    0.1
C     3.1    1.1   -0.0
C     2.5    2.5   -0.1
C     4.7    1.1   -0.1
O     5.1    1.6   -1.4
H     0.5    0.8    0.2
H     0.7   -0.7    1.1
H     0.5   -0.7   -0.7
H     2.6   -2.1   -0.7
H     2.9   -1.9    1.1
H     4.2   -1.4   -0.1
H     1.5    2.5   -0.4
H     3.1    3.1   -0.8
H     2.6    3.0    0.9
H     5.1    0.2    0.2
H     5.0    1.9    0.6
H     4.7    0.9   -2.0
