          13
 frame:         4402
O     1.5   -0.3   -0.9
C     2.7   -0.1   -0.1
C     2.9    1.4   -0.1
C     2.2    2.5   -0.5
C     3.0    3.6   -0.1
C     4.2    3.2    0.4
O     4.1    1.8    0.5
H     1.3   -1.2   -0.8
H     3.6   -0.6   -0.6
H     2.5   -0.5    0.9
H     1.2    2.5   -0.9
H     2.8    4.7   -0.3
H     5.0    3.6    0.8
