          18
 frame:         2283
C     1.1   -0.4   -0.0
C     2.7   -0.3   -0.3
C     3.3    1.0    0.2
C     4.8    1.2    0.0
N     5.3    2.5    0.3
C     5.5    0.1    0.7
C     6.1   -0.7    1.3
H     0.7   -1.3   -0.4
H     0.6    0.5   -0.6
H     0.9   -0.3    1.0
H     2.9   -0.4   -1.3
H     3.2   -1.1    0.2
H     3.1    1.2    1.3
H     2.8    1.9   -0.3
H     5.0    1.1   -1.1
H     5.2    2.7    1.4
H     4.8    3.2   -0.1
H     6.6   -1.5    1.9
