          17
 frame:         4286
O     1.0   -0.3    0.1
C     2.4   -0.3   -0.1
C     2.9   -0.6   -1.5
C     3.1    0.8   -0.9
C     4.5    1.3   -0.5
C     4.4    2.4    0.5
C     4.9    2.4    1.8
H     0.8    0.3    0.8
H     3.0   -0.7    0.8
H     2.1   -0.7   -2.2
H     3.8   -1.2   -1.6
H     2.4    1.5   -1.3
H     5.0    1.7   -1.4
H     5.1    0.5   -0.1
H     3.8    3.3    0.2
H     5.5    1.5    2.1
H     4.9    3.2    2.5
