          19
 frame:         3964
C     1.1    1.1    0.8
C     2.5    0.9    0.2
O     3.3    2.0    0.4
C     4.6    1.9   -0.1
C     5.4    3.2    0.2
C     6.5    3.6   -0.7
C     5.2    4.4   -0.6
H     0.5    0.2    0.7
H     0.6    1.9    0.4
H     1.2    1.2    1.9
H     2.4    0.7   -0.9
H     3.0   -0.0    0.6
H     4.5    1.8   -1.2
H     5.1    1.0    0.2
H     5.5    3.3    1.3
H     6.6    3.0   -1.6
H     7.4    4.0   -0.3
H     5.3    5.4   -0.1
H     4.5    4.4   -1.5
