          12
 frame:         6933
C     1.0    0.0    0.0
C     2.5   -0.0   -0.0
C     3.3    1.1   -0.1
N     4.6    0.8   -0.2
S     5.0   -0.9   -0.1
C     3.1   -1.3    0.0
O     2.7   -2.4    0.1
H     0.6    1.1    0.0
H     0.6   -0.5    0.9
H     0.5   -0.5   -0.9
H     3.0    2.1   -0.1
H     5.3    1.4    0.2
