          15
 frame:         2433
C     3.1   -1.1   -0.6
C     2.5    0.1    0.1
N     3.5    1.2    0.1
C     3.5    2.1   -1.1
C     2.9    2.6    0.2
C     3.6    3.5    1.1
N     4.2    4.3    1.7
H     2.4   -1.9   -0.5
H     4.0   -1.4   -0.1
H     3.3   -0.9   -1.6
H     2.3   -0.1    1.2
H     1.6    0.5   -0.4
H     2.7    1.9   -1.9
H     4.4    2.5   -1.4
H     1.8    2.7    0.3
