          15
 frame:         1920
C     1.0    0.1    0.2
C     2.5   -0.1   -0.1
N     2.7   -1.1   -1.2
N     3.6   -0.7   -2.1
C     3.8    0.6   -2.0
C     3.1    1.1   -0.9
C     3.0    2.4   -0.5
H     0.9    0.9    1.0
H     0.7   -0.8    0.7
H     0.4    0.3   -0.7
H     3.1   -0.3    0.8
H     2.9   -2.1   -0.8
H     4.4    1.1   -2.7
H     2.5    2.8    0.4
H     3.5    3.2   -1.1
