          16
 frame:          825
C     0.9   -0.1   -0.1
C     2.4    0.1    0.1
O     3.1   -0.8   -0.8
C     2.9    1.5   -0.1
C     2.8    2.1   -1.5
C     3.3    2.3    0.9
H     0.4    0.6    0.6
H     0.7   -1.1    0.1
H     0.6    0.2   -1.1
H     2.7   -0.2    1.1
H     2.8   -0.8   -1.7
H     3.5    1.5   -2.2
H     3.1    3.1   -1.6
H     1.8    2.1   -1.9
H     3.4    1.8    1.9
H     3.6    3.3    0.8
