          14
 frame:         6839
O     0.9    1.3   -1.0
N     2.4    1.3   -1.2
C     2.9    1.0   -0.1
C     4.4    0.9    0.0
C     5.3    1.2   -1.2
C     5.2    2.2   -0.1
O     6.3    2.3    0.8
H     0.7    1.5   -1.9
H     2.3    0.8    0.8
H     4.8    0.2    0.8
H     4.8    1.4   -2.1
H     6.2    0.6   -1.2
H     4.7    3.1   -0.3
H     7.0    2.8    0.4
