          13
 frame:         2861
N     1.1   -0.0    0.3
C     2.4    0.1    0.1
C     3.1    1.3   -0.0
C     4.5    1.3   -0.2
C     5.2    0.1   -0.2
C     4.4   -1.1   -0.1
N     3.1   -1.1   -0.0
H     0.5    0.8   -0.1
H     0.7   -0.9    0.1
H     2.5    2.2    0.0
H     5.0    2.2   -0.2
H     6.2    0.0   -0.4
H     4.9   -2.1   -0.2
