          21
 frame:         2406
C     0.9    0.3    1.4
C     2.3    0.1    1.0
C     3.0    1.3    0.3
N     3.1    2.5    1.2
C     4.4    1.0   -0.3
N     4.3    0.0   -1.3
C     5.6   -0.3   -1.8
H     0.5   -0.6    1.9
H     0.2    0.5    0.5
H     0.7    1.1    2.1
H     2.4   -0.8    0.3
H     2.9   -0.1    1.9
H     2.3    1.6   -0.5
H     3.6    2.3    2.0
H     2.2    2.8    1.5
H     5.0    0.6    0.6
H     4.8    2.0   -0.6
H     3.7    0.4   -2.1
H     6.2   -0.8   -1.0
H     6.2    0.5   -2.2
H     5.5   -1.1   -2.6
