          22
 frame:         2694
C     0.9    1.8    1.1
N     2.4    1.9    1.2
C     3.1    1.2    0.0
C     4.6    1.4    0.1
C     5.2    0.8    1.3
C     5.2    0.7   -1.2
C     5.0    2.9   -0.0
H     0.5    2.1    2.0
H     0.6    0.7    0.9
H     0.6    2.4    0.2
H     2.7    1.4    2.0
H     2.7    1.7   -0.9
H     2.9    0.2   -0.1
H     4.9    1.3    2.2
H     6.3    0.8    1.3
H     4.9   -0.3    1.4
H     4.8    1.1   -2.1
H     5.0   -0.4   -1.2
H     6.3    0.8   -1.2
H     4.6    3.4   -0.9
H     6.1    3.1    0.1
H     4.5    3.5    0.8
