          19
 frame:         4182
C     2.0    1.0   -0.7
O     3.2    1.7   -0.4
C     4.3    1.0   -1.0
C     5.6    1.8   -0.8
C     6.8    1.0   -1.2
C     5.5    3.1   -1.4
C     6.4    3.7   -2.3
H     1.2    1.6   -0.2
H     2.0   -0.0   -0.2
H     1.8    0.9   -1.7
H     4.2    0.8   -2.1
H     4.4   -0.0   -0.5
H     5.7    2.0    0.3
H     6.8    0.7   -2.2
H     6.8    0.0   -0.6
H     7.8    1.5   -0.9
H     4.6    3.7   -1.1
H     7.3    3.2   -2.6
H     6.2    4.7   -2.7
