          16
 frame:         1807
C     1.0   -0.0   -0.0
C     2.5   -0.1    0.0
C     3.3   -0.8   -1.1
N     2.8   -1.5   -2.2
C     3.3    0.8   -1.0
C     4.5    1.5   -0.6
C     5.5    2.1   -0.3
H     0.6    0.9    0.5
H     0.6   -0.9    0.5
H     0.6   -0.0   -1.0
H     3.0   -0.1    1.0
H     4.2   -1.2   -0.7
H     2.0   -0.9   -2.6
H     2.4   -2.4   -1.9
H     2.7    1.2   -1.8
H     6.3    2.7   -0.0
