          18
 frame:         2842
N     1.0    0.1    0.2
C     2.5   -0.1   -0.0
C     2.8   -1.5   -0.5
C     2.7   -1.5   -2.0
C     3.2   -0.1   -2.4
C     2.2    1.0   -2.4
C     3.0    0.8   -1.2
H     0.9    1.1    0.3
H     0.7   -0.4    1.0
H     3.1    0.1    0.9
H     2.0   -2.2   -0.1
H     3.8   -1.8   -0.1
H     3.4   -2.3   -2.5
H     1.7   -1.7   -2.4
H     4.1    0.0   -3.1
H     2.4    1.9   -3.0
H     1.1    0.7   -2.3
H     3.8    1.6   -0.9
