          19
 frame:         2539
C     1.4   -0.3   -0.5
C     2.9   -0.2   -0.3
N     3.4    1.1   -0.4
C     4.7    1.4   -0.2
N     5.7    0.6   -0.0
C     5.0    2.9   -0.1
C     4.7    3.5    1.3
H     1.0   -1.3   -0.5
H     1.1    0.1   -1.5
H     0.8    0.3    0.2
H     3.4   -0.9   -1.0
H     3.1   -0.7    0.7
H     2.7    1.9   -0.2
H     5.4   -0.4   -0.1
H     4.4    3.5   -0.8
H     6.0    3.0   -0.3
H     3.7    3.4    1.6
H     5.0    4.5    1.4
H     5.4    3.0    2.1
