          23
 frame:         1222
C     2.9   -0.9   -1.1
C     2.5   -0.1    0.1
C     3.1    1.4    0.2
C     2.5    2.1    1.4
C     4.7    1.4    0.1
C     5.2    2.8    0.0
C     5.3    0.6    1.3
H     2.3   -1.8   -1.1
H     3.9   -1.2   -1.1
H     2.6   -0.4   -2.0
H     2.7   -0.6    1.1
H     1.4    0.1    0.1
H     2.8    1.9   -0.8
H     2.8    1.7    2.3
H     1.4    2.2    1.3
H     2.9    3.2    1.4
H     4.9    0.8   -0.8
H     5.1    3.4    0.9
H     4.8    3.3   -0.8
H     6.3    2.8   -0.2
H     5.0    1.1    2.3
H     6.4    0.6    1.2
H     5.0   -0.4    1.4
