          16
 frame:         5455
C     1.1    0.1    0.9
C     2.2    0.2   -0.1
O     2.3   -0.5   -1.1
C     3.3    1.2    0.1
C     3.1    2.6   -0.6
C     3.6    3.2    0.7
N     3.3    2.0    1.4
H     1.5   -0.2    1.9
H     0.3   -0.6    0.5
H     0.6    1.1    1.0
H     4.3    0.8   -0.2
H     2.0    2.8   -0.8
H     3.6    2.8   -1.6
H     4.7    3.5    0.6
H     3.1    4.1    1.1
H     4.1    1.6    2.0
