          13
 frame:         6349
N     1.0    0.3    0.1
C     2.2    0.2   -0.0
N     3.1    1.2    0.5
C     3.8    2.1   -0.4
C     2.7    2.6    0.4
C     3.0    3.4    1.6
O     2.4    4.5    1.9
H     0.6   -0.6   -0.3
H     2.8   -0.6   -0.5
H     3.6    2.1   -1.5
H     4.8    2.4   -0.2
H     1.7    2.8   -0.1
H     3.8    3.0    2.2
