          15
 frame:         6384
N     1.3   -0.0    0.7
C     2.1    0.2   -0.3
O     2.0   -0.3   -1.5
C     3.2    1.2   -0.1
C     2.9    2.7   -0.5
C     3.5    3.1    0.8
N     3.3    1.7    1.3
H     1.4    0.5    1.6
H     0.5   -0.6    0.6
H     4.1    0.8   -0.5
H     1.8    2.9   -0.6
H     3.4    3.0   -1.4
H     4.5    3.5    0.8
H     2.9    3.9    1.4
H     4.1    1.4    1.9
