          15
 frame:         1787
C     0.9   -0.1   -0.1
C     2.4    0.1    0.1
C     3.1    1.2   -0.2
C     4.6    1.2    0.0
N     5.1   -0.1   -0.3
N     4.5   -1.2    0.2
C     3.2   -1.1    0.4
H     0.7   -0.8   -0.8
H     0.5    0.9   -0.3
H     0.5   -0.4    0.9
H     2.6    2.1   -0.5
H     5.1    2.0   -0.6
H     4.8    1.5    1.1
H     6.1   -0.2   -0.3
H     2.8   -2.0    0.8
