          19
 frame:         2214
C     0.9   -0.1   -0.0
C     2.5   -0.0    0.0
C     3.0   -0.7    1.3
C     3.1   -0.7   -1.2
C     2.9    1.4    0.0
N     3.6    2.0    0.9
N     4.0    3.3    0.8
H     0.6    0.4   -0.9
H     0.5    0.4    0.8
H     0.6   -1.1   -0.1
H     2.6   -0.2    2.2
H     4.1   -0.7    1.4
H     2.7   -1.8    1.3
H     2.8   -0.2   -2.1
H     2.8   -1.8   -1.2
H     4.2   -0.7   -1.2
H     2.5    2.0   -0.9
H     4.1    3.8    1.7
H     3.3    3.9    0.2
