          17
 frame:         1076
C     1.1    1.6    1.4
O     2.5    1.8    1.3
C     3.0    1.3    0.0
C     4.5    1.5   -0.0
C     4.9    3.0   -0.0
N     6.4    3.1   -0.2
H     0.8    2.0    2.4
H     0.8    0.5    1.3
H     0.5    2.2    0.6
H     2.5    1.9   -0.8
H     2.7    0.3   -0.1
H     4.9    1.1   -1.0
H     4.9    1.0    0.8
H     4.5    3.5    0.9
H     4.4    3.5   -0.9
H     6.8    2.7    0.6
H     6.6    4.1   -0.2
