          15
 frame:         6065
N     1.1   -0.0   -0.0
C     2.5   -0.1   -0.0
C     3.2   -0.7   -1.1
C     3.2    0.8   -1.1
C     4.5    1.5   -0.8
N     5.5    0.9   -0.4
O     6.5    1.9   -0.1
H     0.7    0.7    0.6
H     0.7   -0.9    0.3
H     3.1   -0.1    0.9
H     2.6   -1.2   -1.9
H     4.2   -1.2   -1.0
H     2.5    1.3   -1.8
H     4.5    2.6   -0.9
H     7.3    1.3    0.2
