          19
 frame:         3848
C     1.5    0.1    0.5
C     2.8   -0.1   -0.4
C     2.5   -0.8   -1.7
O     3.6   -1.1   -2.5
C     3.4    1.3   -0.7
C     4.3    1.9    0.3
C     4.9    1.4   -0.9
H     1.8    0.6    1.4
H     1.1   -0.9    0.7
H     0.8    0.6   -0.1
H     3.5   -0.7    0.2
H     1.8   -0.3   -2.3
H     2.0   -1.8   -1.5
H     4.1   -0.3   -2.6
H     2.8    1.9   -1.3
H     4.5    1.4    1.3
H     4.2    3.0    0.5
H     5.2    2.2   -1.7
H     5.5    0.5   -0.8
