          22
 frame:         2274
C     3.0   -0.9   -1.2
C     2.5   -0.0   -0.0
C     3.0    1.4   -0.0
C     2.4    2.2   -1.2
N     2.6    2.1    1.2
C     4.6    1.6   -0.1
C     5.3    0.9    1.1
H     2.6   -1.9   -1.1
H     4.1   -1.0   -1.2
H     2.6   -0.5   -2.1
H     2.9   -0.5    0.9
H     1.4   -0.0    0.1
H     2.8    1.8   -2.2
H     2.7    3.2   -1.2
H     1.3    2.1   -1.2
H     2.8    1.6    2.0
H     1.5    2.2    1.2
H     4.8    2.6   -0.1
H     4.9    1.1   -1.0
H     5.0    1.3    2.1
H     6.4    1.1    1.0
H     5.2   -0.2    1.2
