          15
 frame:         7108
C     4.0   -1.2   -0.5
S     2.8    0.0    0.2
O     1.7    0.2   -0.8
O     2.5   -0.4    1.6
C     3.7    1.5    0.3
C     3.9    2.3   -1.0
C     3.0    2.8    0.1
H     4.8   -1.2    0.2
H     4.3   -0.8   -1.5
H     3.4   -2.1   -0.5
H     4.5    1.5    1.0
H     3.5    1.9   -1.9
H     4.9    2.9   -1.1
H     3.2    3.6    0.7
H     1.9    2.7   -0.1
