          19
 frame:         3940
C     1.7   -1.8   -0.8
C     2.8   -0.9   -0.1
C     2.8    0.5   -0.5
O     1.6    1.1   -0.1
C     4.0    1.3    0.1
O     3.8    2.7   -0.4
C     4.8    3.5    0.2
H     1.8   -2.8   -0.4
H     1.9   -1.8   -1.9
H     0.7   -1.4   -0.5
H     3.8   -1.4   -0.3
H     2.7   -1.0    1.0
H     2.9    0.6   -1.6
H     1.7    2.1   -0.3
H     4.9    0.9   -0.3
H     3.9    1.3    1.2
H     4.6    4.5   -0.1
H     5.8    3.2   -0.0
H     4.7    3.5    1.3
