          18
 frame:         5706
C     0.8    2.3   -0.5
N     1.8    1.4    0.1
C     3.2    1.8   -0.1
C     4.2    0.8    0.4
C     4.1   -0.5   -0.4
C     4.8   -0.5   -1.8
O     5.4    0.5   -2.2
H    -0.2    2.0   -0.3
H     0.9    2.4   -1.6
H     0.9    3.4   -0.1
H     1.6    1.2    1.1
H     3.4    2.8    0.5
H     3.4    2.0   -1.2
H     4.0    0.5    1.4
H     5.2    1.2    0.3
H     3.0   -0.8   -0.6
H     4.5   -1.4    0.1
H     4.7   -1.4   -2.4
