          14
 frame:         5215
C     1.0    0.1   -0.0
C     2.3    0.0    0.3
C     3.3    0.8   -0.5
O     3.0    1.4   -1.5
C     4.7    0.8    0.1
C     5.0    1.1    1.5
N     5.1   -0.3    1.1
H     0.2   -0.5    0.5
H     0.7    0.7   -0.9
H     2.6   -0.6    1.1
H     5.5    1.1   -0.7
H     4.2    1.3    2.2
H     5.9    1.7    1.7
H     6.1   -0.5    0.9
