          14
 frame:         6254
N     1.1    0.3   -0.1
C     2.6   -0.1   -0.1
C     2.9   -0.9   -1.2
C     3.1   -1.5   -2.2
C     3.4    1.2   -0.1
C     3.8    1.9    1.2
O     4.7    1.2    0.4
H     0.9    0.6    0.9
H     0.6   -0.6   -0.3
H     2.9   -0.7    0.8
H     3.4   -2.1   -3.1
H     3.2    1.9   -0.9
H     3.5    1.4    2.2
H     3.9    3.0    1.3
