          15
 frame:         5847
C     0.9   -0.1    0.0
N     2.4   -0.1    0.1
N     3.0   -1.3    0.6
C     3.1    1.0   -0.1
O     2.5    2.0   -0.5
C     4.6    0.9    0.1
C     5.4    2.0   -0.2
H     0.6    0.9   -0.3
H     0.5   -0.4    1.0
H     0.6   -0.9   -0.7
H     2.8   -2.1   -0.1
H     2.6   -1.6    1.5
H     5.0   -0.1    0.3
H     4.9    2.9   -0.5
H     6.5    1.9   -0.1
