          18
 frame:         2035
C     1.0    0.3    0.9
C     2.4    0.0    0.2
C     2.7   -1.2   -0.3
C     3.3    1.2    0.2
C     3.0    2.5   -0.5
C     3.7    3.2    0.7
N     3.5    2.0    1.4
H     1.2    0.7    1.9
H     0.5   -0.7    1.0
H     0.5    1.0    0.3
H     2.0   -2.0   -0.3
H     3.7   -1.3   -0.7
H     4.3    0.8   -0.2
H     1.9    2.7   -0.5
H     3.3    2.7   -1.5
H     4.7    3.5    0.4
H     3.2    4.1    1.1
H     4.3    1.7    2.0
