          13
 frame:           33
C     1.0    0.0    0.0
C     2.5    0.0   -0.0
C     3.1   -0.8   -1.2
N     3.0    1.4    0.1
H     0.6    0.6    0.9
H     0.6   -1.0    0.0
H     0.6    0.5   -0.9
H     2.9   -0.5    0.9
H     2.7   -0.3   -2.2
H     2.7   -1.8   -1.2
H     4.2   -0.8   -1.2
H     2.7    1.9   -0.8
H     4.0    1.4    0.0
