          15
 frame:         4493
O     2.9   -0.6    1.0
C     2.2    0.0   -0.0
C     2.6    1.5   -0.1
C     1.7    2.5   -0.1
C     4.1    1.8   -0.1
C     4.6    2.0    1.3
O     5.3    2.9    1.6
H     2.7   -1.6    0.9
H     1.1   -0.0    0.1
H     2.4   -0.4   -1.0
H     0.6    2.2   -0.0
H     1.9    3.5   -0.2
H     4.3    2.7   -0.7
H     4.6    0.9   -0.6
H     4.4    1.2    2.0
