          17
 frame:         3293
C     0.9    0.1   -0.1
C     2.4   -0.0    0.2
C     3.2    1.2   -0.2
C     3.6    1.2   -1.7
O     4.4    0.0   -2.0
C     4.0   -1.1   -1.4
C     3.1   -1.2   -0.5
H     0.5    0.9    0.4
H     0.4   -0.8    0.1
H     0.7    0.2   -1.2
H     2.5   -0.1    1.2
H     2.6    2.1   -0.1
H     4.1    1.3    0.3
H     4.1    2.1   -2.0
H     2.7    1.1   -2.4
H     4.5   -2.0   -1.9
H     2.8   -2.2   -0.1
