          17
 frame:         2810
N     1.5   -0.4   -0.4
C     2.8    0.0    0.0
C     3.7   -1.0    0.7
C     4.0   -0.4   -0.7
N     5.0    0.6   -0.8
C     4.2    1.9   -0.4
C     3.0    1.5    0.5
H     1.1    0.2   -1.1
H     0.8   -0.4    0.4
H     3.3   -2.1    0.7
H     4.3   -0.8    1.5
H     3.9   -1.1   -1.6
H     5.7    0.5   -0.1
H     4.9    2.6    0.1
H     3.9    2.3   -1.4
H     3.3    1.5    1.5
H     2.2    2.1    0.3
