          16
 frame:         6256
N     2.3   -0.5    1.4
C     2.1    0.0    0.1
C     2.9    1.3   -0.1
C     2.2    2.5   -0.4
C     4.3    1.3    0.1
C     5.3    1.5   -1.0
O     5.1    2.5   -0.0
H     1.9   -1.4    1.5
H     1.8    0.2    2.1
H     1.1    0.2   -0.3
H     2.6   -0.7   -0.6
H     1.2    2.5   -0.6
H     2.8    3.4   -0.5
H     4.7    0.6    0.9
H     4.9    1.7   -2.0
H     6.3    1.0   -1.0
