          16
 frame:         7090
C     0.9   -0.1   -0.1
N     2.4    0.1   -0.2
C     3.0   -0.8   -1.2
S     3.0    1.6   -0.0
C     2.5    2.5   -1.5
O     2.3    2.3    1.1
O     4.5    1.5   -0.1
H     0.6    0.6    0.7
H     0.7   -1.1    0.2
H     0.4    0.2   -1.0
H     2.8   -1.8   -0.9
H     4.1   -0.6   -1.2
H     2.6   -0.6   -2.2
H     2.9    2.0   -2.4
H     2.9    3.5   -1.4
H     1.4    2.6   -1.6
