          14
 frame:         6393
N     2.8   -1.0   -0.4
C     2.1    0.2    0.0
O     0.9    0.2    0.3
C     3.0    1.4    0.1
C     2.4    2.6    0.2
C     4.5    1.3   -0.0
C     5.3    2.0   -0.8
H     3.7   -0.9   -0.8
H     2.2   -1.8   -0.5
H     1.3    2.6    0.3
H     3.0    3.5    0.3
H     4.9    0.5    0.6
H     4.9    2.8   -1.5
H     6.4    1.9   -0.8
