          15
 frame:         3960
C     0.8    0.0   -0.1
C     2.1    0.3    0.7
O     2.3   -0.3    1.8
C     3.0    1.3    0.1
C     2.6    2.8    0.3
O     3.9    3.1    1.1
C     4.3    1.7    1.0
H     0.4    1.0   -0.5
H     0.1   -0.6    0.4
H     1.1   -0.5   -1.1
H     3.3    1.1   -0.9
H     1.7    3.0    0.9
H     2.6    3.4   -0.6
H     5.2    1.6    0.5
H     4.3    1.2    2.0
