          18
 frame:         4802
C     1.1   -0.1   -0.1
C     2.6    0.1   -0.1
N     3.5   -0.4   -1.2
C     3.3    1.1   -1.0
C     2.6    1.9   -2.1
C     4.6    1.7   -0.6
O     5.7    1.5   -1.6
H     0.6    0.6    0.6
H     0.9   -1.1    0.2
H     0.7    0.1   -1.1
H     3.1    0.0    0.9
H     2.9   -0.7   -2.0
H     1.7    1.3   -2.5
H     3.3    2.1   -2.9
H     2.2    2.8   -1.7
H     4.9    1.2    0.4
H     4.5    2.8   -0.4
H     5.7    0.6   -1.7
