          17
 frame:         5508
C     0.7    2.0    0.2
C     2.2    2.1    0.7
O     3.0    1.6   -0.3
C     4.4    1.6    0.0
C     5.0    3.0   -0.0
N     5.5    3.5    1.0
N     6.1    4.7    0.9
H     0.0    2.4    1.0
H     0.5    1.0    0.1
H     0.6    2.5   -0.7
H     2.3    1.6    1.6
H     2.4    3.2    0.8
H     4.9    0.9   -0.7
H     4.5    1.2    1.0
H     5.0    3.5   -1.0
H     6.2    5.2    1.8
H     5.8    5.3    0.1
