          17
 frame:         2746
C     1.5   -0.4   -0.5
N     2.9    0.1   -0.6
C     3.1    1.2    0.2
C     4.6    1.6    0.3
N     5.5    0.6    0.8
C     5.0    2.0   -1.1
C     5.4    2.2   -2.2
H     1.4   -1.2   -1.2
H     0.8    0.4   -0.8
H     1.2   -0.7    0.5
H     3.1    0.3   -1.5
H     2.8    1.0    1.3
H     2.5    2.1   -0.1
H     4.7    2.5    0.9
H     5.2   -0.3    0.4
H     5.3    0.5    1.8
H     5.7    2.5   -3.2
