          15
 frame:         3142
C     1.4    0.4   -0.2
C     2.7   -0.2    0.2
C     2.9   -1.7    0.2
C     4.3   -1.9    0.0
C     5.0   -0.8   -0.2
C     4.0    0.4   -0.0
O     3.4    0.4    1.3
H     1.5    1.5   -0.2
H     0.6    0.1    0.5
H     1.1    0.1   -1.2
H     2.3   -2.2   -0.6
H     2.5   -2.2    1.2
H     4.8   -2.9    0.0
H     6.1   -0.7   -0.3
H     4.2    1.3   -0.5
