          17
 frame:         3950
C     1.4    2.9    0.0
C     2.6    2.4   -0.3
O     3.2    1.5    0.5
C     4.6    1.2    0.1
C     5.7    2.1    0.7
C     6.5    0.9    0.9
C     5.2    0.0    0.8
H     0.9    3.6   -0.6
H     0.8    2.6    0.9
H     3.1    2.7   -1.2
H     4.7    1.2   -1.0
H     5.3    2.5    1.7
H     6.1    3.0    0.1
H     7.2    0.7    0.0
H     7.1    0.8    1.8
H     5.2   -0.9    0.3
H     4.8   -0.1    1.8
