          15
 frame:         5713
C     1.7   -0.9    1.2
N     2.8   -0.4    0.3
C     3.3    0.9    0.5
C     4.4    1.4   -0.1
C     4.7    2.8    0.2
N     5.9    3.2   -0.4
O     4.1    3.6    0.9
H     1.2   -1.7    0.7
H     1.0   -0.1    1.5
H     2.1   -1.3    2.1
H     3.3   -1.1   -0.1
H     2.7    1.6    1.1
H     5.0    0.8   -0.7
H     6.3    2.7   -1.2
H     6.0    4.2   -0.4
