          17
 frame:         3269
C     0.8    0.1   -0.2
C     2.3    0.0    0.1
C     2.6   -0.1    1.6
C     3.1   -0.8   -0.9
O     2.5   -1.4   -1.9
C     3.2    0.8   -0.8
O     4.3    1.4   -0.2
H     0.6    0.1   -1.2
H     0.4    1.0    0.3
H     0.2   -0.7    0.3
H     3.7   -0.1    1.7
H     2.2   -1.0    2.0
H     2.3    0.8    2.1
H     4.0   -1.3   -0.4
H     3.1   -1.4   -2.7
H     2.7    1.3   -1.6
H     5.1    1.4   -0.9
