          17
 frame:         5167
C     0.9   -0.5    0.1
C     2.4   -0.5   -0.3
C     2.9   -1.9   -0.6
N     2.6    0.4   -1.5
C     2.7    1.8   -1.4
N     2.6    2.5   -2.6
O     2.8    2.4   -0.3
H     0.6    0.6    0.3
H     0.8   -1.1    1.0
H     0.3   -0.9   -0.7
H     3.0    0.0    0.5
H     2.4   -2.3   -1.4
H     2.8   -2.5    0.3
H     4.0   -1.8   -0.9
H     2.2    0.1   -2.4
H     3.0    2.0   -3.4
H     3.0    3.4   -2.5
