          17
 frame:         6122
N     0.9    0.0    0.0
C     2.4    0.0    0.0
C     3.1    1.0    0.9
N     4.1   -0.1    1.4
C     3.1   -1.1    0.8
C     3.7   -2.3    0.1
O     4.4   -3.1    1.1
H     0.5   -0.7   -0.6
H     0.6    0.9   -0.4
H     2.8    0.1   -1.0
H     2.5    1.3    1.8
H     3.6    1.9    0.5
H     4.9   -0.0    0.7
H     2.5   -1.4    1.7
H     4.4   -1.9   -0.7
H     2.9   -2.9   -0.3
H     4.9   -2.5    1.7
