          14
 frame:         6825
O     1.1    0.1    0.6
N     2.4    0.0   -0.1
C     3.0    1.1   -0.1
C     4.3    1.3   -0.8
C     4.6    2.8   -0.7
C     3.5    3.4   -0.1
C     2.4    2.5    0.3
H     0.8   -0.8    0.5
H     4.4    0.9   -1.8
H     5.1    0.7   -0.2
H     5.5    3.2   -1.1
H     3.5    4.5    0.0
H     2.2    2.5    1.4
H     1.5    2.7   -0.2
