          13
 frame:         6047
C     2.0    0.4   -1.4
O     2.7    1.6   -1.1
N     3.3    1.5    0.1
C     4.7    1.7    0.1
N     5.5    1.7   -1.0
C     5.3    1.9    1.4
C     5.7    2.1    2.5
H     1.6    0.6   -2.5
H     1.2    0.2   -0.7
H     2.7   -0.5   -1.5
H     2.9    2.1    0.8
H     4.9    1.6   -1.8
H     6.1    2.3    3.5
