          18
 frame:         6298
N     0.8    0.1    0.7
C     2.3   -0.0    0.5
C     3.0    1.3    0.5
C     2.8    2.1    1.8
O     1.4    2.5    2.0
C     4.5    1.1    0.2
C     5.2    1.6   -0.8
H     0.4   -0.8    0.8
H     0.4    0.5   -0.2
H     2.5   -0.6   -0.5
H     2.6   -0.6    1.3
H     2.6    1.9   -0.4
H     3.4    3.0    1.8
H     3.1    1.5    2.6
H     0.9    1.7    1.8
H     5.0    0.5    1.0
H     4.7    2.2   -1.6
H     6.2    1.4   -0.9
