          13
 frame:          386
C     1.0   -0.0   -0.1
C     2.5    0.0    0.0
N     3.4   -0.7   -1.0
C     3.3    0.8   -1.0
C     4.5    1.5   -0.6
C     5.5    2.2   -0.3
H     0.6    0.8    0.5
H     0.6   -1.0    0.3
H     0.7    0.1   -1.1
H     2.9   -0.0    1.0
H     2.8   -1.0   -1.8
H     2.7    1.3   -1.8
H     6.4    2.7   -0.0
