          19
 frame:         5528
C     0.8   -0.2   -0.1
C     2.3    0.1   -0.2
O     3.0   -0.3    1.0
C     3.0   -0.8   -1.3
N     2.8   -2.2   -1.1
C     2.6    1.6   -0.4
N     2.3    2.3    0.8
H     0.3    0.1   -1.0
H     0.4    0.3    0.8
H     0.7   -1.3    0.0
H     2.9    0.4    1.6
H     4.1   -0.5   -1.4
H     2.5   -0.5   -2.3
H     3.2   -2.5   -0.2
H     3.3   -2.7   -1.8
H     2.1    1.9   -1.3
H     3.7    1.7   -0.6
H     1.4    2.5    0.9
H     2.9    3.2    0.9
