          17
 frame:         3830
C     4.0   -0.9    0.8
C     3.7    0.4    1.4
C     3.4    1.5    0.4
C     2.8    2.8    1.1
O     3.8    3.3    2.0
C     4.6    1.9   -0.4
O     4.6    2.1   -1.6
H     4.2   -1.7    1.5
H     5.0   -0.8    0.1
H     3.2   -1.3    0.1
H     4.5    0.8    2.1
H     2.8    0.3    2.1
H     2.6    1.2   -0.3
H     1.9    2.5    1.6
H     2.6    3.5    0.3
H     3.5    4.1    2.4
H     5.5    2.0    0.2
