          19
 frame:         4090
C     2.0   -0.5   -0.9
O     1.8    0.7   -0.1
C     3.0    1.4    0.1
C     3.5    2.4   -1.0
C     2.9    2.9    0.4
C     1.6    3.5    0.4
C     3.9    3.5    1.3
H     1.1   -1.0   -1.0
H     2.8   -1.2   -0.5
H     2.4   -0.2   -1.9
H     3.8    0.8    0.6
H     2.8    2.5   -1.8
H     4.5    2.5   -1.2
H     0.9    3.0   -0.3
H     1.6    4.6    0.1
H     1.1    3.5    1.4
H     4.9    2.9    1.3
H     3.6    3.4    2.4
H     4.1    4.5    1.1
