          18
 frame:          309
C     3.2   -1.1   -0.7
C     2.6   -0.1    0.3
C     3.1    1.3    0.2
C     2.4    2.3    1.2
C     4.6    1.4    0.4
C     5.5    1.9   -0.5
H     2.8   -2.1   -0.5
H     4.3   -1.1   -0.7
H     2.9   -0.8   -1.7
H     2.9   -0.5    1.4
H     1.5   -0.1    0.3
H     2.9    1.7   -0.8
H     2.6    2.0    2.2
H     1.3    2.2    1.1
H     2.7    3.3    1.1
H     5.0    1.1    1.4
H     5.2    2.2   -1.5
H     6.6    1.9   -0.3
