          17
 frame:         2552
C     0.9    1.0    0.5
C     2.4    0.8    0.4
N     3.1    1.8    0.1
N     4.5    1.5    0.0
C     5.3    2.5   -0.0
C     4.9    4.0    0.0
C     6.8    2.2   -0.1
H     0.6    0.7    1.5
H     0.4    0.3   -0.2
H     0.6    2.0    0.2
H     2.9   -0.1    0.6
H     3.9    4.1   -0.1
H     5.5    4.5   -0.8
H     5.2    4.4    1.0
H     7.0    1.1   -0.1
H     7.3    2.6    0.8
H     7.2    2.6   -1.0
