          16
 frame:          858
C     1.2    0.1   -0.8
O     2.3    0.2    0.1
C     3.0    1.4    0.0
C     2.2    2.7    0.0
C     4.3    1.3    0.0
C     5.3    2.5    0.1
H     0.8   -0.9   -0.7
H     1.4    0.3   -1.9
H     0.4    0.8   -0.5
H     1.5    2.6    0.9
H     1.6    2.8   -0.9
H     2.8    3.6    0.2
H     4.8    0.3   -0.0
H     4.9    3.4    0.1
H     6.0    2.5   -0.8
H     6.0    2.4    1.0
