          13
 frame:         2994
N     1.2    0.4    1.2
C     2.2    0.4    0.6
C     3.3    0.4   -0.2
C     4.5    0.8    0.3
N     5.7    0.8   -0.5
C     7.0    0.4    0.2
C     6.7    1.8   -0.2
H     3.2    0.1   -1.2
H     4.6    1.1    1.4
H     7.6   -0.2   -0.4
H     6.9    0.1    1.2
H     6.4    2.5    0.6
H     7.2    2.3   -1.1
