          19
 frame:         4042
C     1.1   -0.2    0.4
C     2.6   -0.1    0.5
O     3.3   -1.1   -0.3
C     3.1    1.3    0.2
C     2.5    2.4    1.1
C     4.7    1.4    0.4
O     5.4    0.6   -0.6
H     0.6    0.4    1.1
H     0.8   -1.2    0.5
H     0.8    0.1   -0.7
H     2.9   -0.3    1.5
H     2.9   -1.0   -1.2
H     2.9    1.6   -0.9
H     2.6    2.2    2.2
H     1.4    2.5    0.9
H     3.0    3.4    0.9
H     4.9    1.1    1.4
H     5.0    2.4    0.2
H     5.0   -0.2   -0.6
