          13
 frame:         4024
C     3.6   -0.6    0.2
C     4.7   -0.1   -0.3
O     4.9    1.3   -0.1
C     6.2    1.8   -0.0
C     7.3    1.0    0.2
C     6.3    3.2   -0.2
O     7.3    3.9   -0.2
H     3.4   -1.7   -0.1
H     2.9   -0.1    0.7
H     5.5   -0.6   -0.8
H     7.3   -0.0    0.5
H     8.3    1.6    0.3
H     5.3    3.7   -0.5
