          14
 frame:         6007
C     4.3   -1.9    0.9
O     5.0   -0.8    0.3
C     4.1    0.2   -0.1
O     2.9    0.2   -0.0
N     4.9    1.2   -0.7
C     4.3    2.4   -1.2
C     5.0    3.4   -1.8
H     5.1   -2.7    1.1
H     3.5   -2.4    0.2
H     3.8   -1.6    1.8
H     5.9    1.1   -0.7
H     3.2    2.4   -1.1
H     6.1    3.4   -1.9
H     4.5    4.3   -2.1
