          18
 frame:         2496
C     1.1   -0.7   -0.1
C     2.7   -0.5   -0.2
N     3.0    0.9    0.1
C     4.5    1.1    0.1
C     4.9    2.4    0.6
C     5.2    3.5    1.0
C     5.6    4.9    1.4
H     0.9   -1.7   -0.4
H     0.6    0.0   -0.8
H     0.8   -0.5    0.9
H     3.0   -0.7   -1.2
H     3.2   -1.2    0.5
H     2.7    1.2    1.0
H     4.8    1.0   -1.0
H     5.0    0.3    0.7
H     4.7    5.5    1.6
H     6.3    5.3    0.8
H     6.1    4.8    2.4
