          17
 frame:         3020
N     1.5    0.4    2.6
C     2.3    0.7    1.7
N     3.6    0.2    1.6
C     4.7    0.7    0.8
C     5.9    1.6    1.4
C     6.8    0.9    0.3
C     5.7   -0.3    0.2
H     0.6    0.8    2.4
H     2.1    1.4    0.8
H     3.9   -0.3    2.5
H     4.2    1.3   -0.0
H     6.1    1.2    2.4
H     5.8    2.7    1.3
H     6.8    1.4   -0.6
H     7.8    0.6    0.6
H     5.5   -0.7   -0.8
H     5.9   -1.1    0.9
