          16
 frame:         6726
O     1.8   -0.4   -0.4
C     2.3   -0.0    0.7
C     3.3    1.1    0.8
C     3.6    1.8   -0.5
N     4.4    3.0   -0.3
C     5.9    2.7   -0.4
C     5.2    3.5   -1.5
H     2.1   -0.6    1.6
H     4.2    0.7    1.2
H     2.9    1.8    1.5
H     2.6    2.2   -1.0
H     4.0    1.1   -1.3
H     6.2    1.7   -0.6
H     6.5    3.2    0.3
H     5.3    4.5   -1.6
H     5.0    2.9   -2.4
