          15
 frame:         1064
C     2.7   -0.8   -1.0
N     2.5   -0.0    0.2
C     3.0    1.3    0.1
C     2.5    2.2    1.3
C     4.5    1.5    0.1
O     5.3    0.6    0.3
H     2.3   -1.8   -0.8
H     3.7   -0.9   -1.3
H     2.1   -0.4   -1.8
H     3.0   -0.5    1.0
H     2.6    1.8   -0.8
H     2.9    1.8    2.2
H     1.4    2.3    1.2
H     2.9    3.3    1.2
H     4.9    2.5   -0.3
