          14
 frame:         2773
C     1.2   -0.2    0.1
N     2.5    0.4    0.4
C     2.8    1.4   -0.4
N     4.1    1.9   -0.3
C     4.9    1.5    0.8
C     6.3    2.1    0.7
N     7.3    2.5    0.5
H     1.3   -1.3   -0.2
H     0.6    0.3   -0.7
H     0.6   -0.2    1.1
H     2.2    1.8   -1.1
H     4.2    2.9   -0.6
H     5.0    0.4    0.8
H     4.5    1.8    1.8
