          22
 frame:         2144
C     1.8   -0.9    0.3
C     3.2   -0.5    0.1
C     3.7   -1.0   -1.3
C     3.4    1.0    0.2
C     4.8    1.6    0.1
C     4.8    3.1    0.1
N     5.7    0.9    1.1
H     1.4   -0.5    1.3
H     1.6   -2.0    0.3
H     1.1   -0.5   -0.5
H     3.9   -1.0    0.8
H     3.2   -0.6   -2.1
H     3.5   -2.1   -1.4
H     4.8   -0.9   -1.4
H     3.0    1.4    1.1
H     2.8    1.5   -0.6
H     5.3    1.2   -0.9
H     4.4    3.5    1.1
H     4.3    3.5   -0.7
H     5.9    3.5    0.0
H     5.3    1.2    2.0
H     6.6    1.3    1.1
