          16
 frame:          875
C     1.1   -0.1    0.2
O     2.5    0.0    0.2
C     2.9    1.4    0.0
C     4.5    1.3   -0.1
C     5.1    0.9    1.3
O     4.9    0.5   -1.2
H     0.8   -1.1    0.3
H     0.7    0.3   -0.8
H     0.6    0.5    1.0
H     2.6    2.0    0.9
H     2.5    1.8   -0.9
H     4.8    2.3   -0.3
H     4.8   -0.1    1.6
H     4.9    1.6    2.1
H     6.2    0.8    1.1
H     4.4   -0.3   -1.1
