          19
 frame:         1501
C     0.8   -0.1   -0.1
C     2.4   -0.1    0.1
C     3.0    1.3   -0.1
C     4.5    1.4    0.0
C     5.2    2.0    0.9
C     6.6    2.0    1.0
C     7.3    2.7    1.9
H     0.5   -1.1    0.1
H     0.5    0.2   -1.0
H     0.4    0.5    0.7
H     2.8   -0.8   -0.7
H     2.7   -0.5    1.1
H     2.5    2.0    0.7
H     2.6    1.7   -1.1
H     5.0    0.8   -0.7
H     4.6    2.6    1.7
H     7.1    1.4    0.2
H     6.8    3.3    2.7
H     8.4    2.7    2.0
