          22
 frame:         2494
C     1.7   -0.5   -0.7
C     3.2   -0.1   -0.4
N     3.3    1.3   -0.3
C     4.7    1.7   -0.0
C     4.8    3.2    0.1
C     6.3    3.6    0.6
C     4.5    4.0   -1.2
H     1.6   -1.6   -0.8
H     1.3   -0.0   -1.6
H     1.1   -0.2    0.2
H     3.8   -0.5   -1.3
H     3.6   -0.7    0.5
H     2.7    1.6    0.5
H     5.3    1.4   -0.8
H     5.1    1.2    0.9
H     4.2    3.6    0.9
H     7.0    3.3   -0.2
H     6.6    3.1    1.5
H     6.4    4.7    0.7
H     5.2    3.7   -2.0
H     4.5    5.1   -1.0
H     3.5    3.7   -1.5
