          17
 frame:         1258
C     1.3    0.1    0.7
C     2.4   -0.1   -0.0
C     2.8   -1.4   -0.7
C     4.4   -1.2   -0.8
C     4.7    0.2   -0.8
C     3.9    1.1   -1.8
C     3.4    1.0   -0.4
H     1.1    1.1    1.2
H     0.6   -0.7    1.0
H     2.4   -1.4   -1.7
H     2.5   -2.2   -0.1
H     4.8   -1.7    0.1
H     4.8   -1.8   -1.6
H     5.7    0.6   -0.5
H     4.3    2.0   -2.1
H     3.3    0.6   -2.6
H     3.5    1.9    0.2
