          15
 frame:         4533
O     4.1    1.8    2.7
C     3.2    2.2    2.0
O     3.2    2.5    0.7
C     4.5    2.3    0.1
C     5.5    3.4    0.3
C     6.5    3.8   -0.9
C     5.3    4.7   -0.5
H     2.2    2.4    2.4
H     4.2    2.2   -1.0
H     4.9    1.4    0.4
H     5.9    3.5    1.3
H     6.4    3.2   -1.8
H     7.5    4.1   -0.6
H     5.6    5.7    0.0
H     4.5    4.8   -1.2
