          21
 frame:         1392
C     0.9    1.0   -1.0
C     2.4    0.8   -1.1
C     3.2    1.3   -0.1
C     4.7    1.2   -0.1
C     5.1    0.4    1.2
C     5.3    0.5   -1.3
C     5.3    2.6    0.0
H     0.5    1.5   -1.9
H     0.5    1.5   -0.1
H     0.4   -0.0   -1.1
H     2.8    0.3   -1.9
H     2.7    1.8    0.8
H     4.7    0.9    2.1
H     6.2    0.4    1.3
H     4.7   -0.6    1.2
H     5.0    1.0   -2.2
H     4.9   -0.6   -1.4
H     6.4    0.4   -1.2
H     5.0    3.2   -0.9
H     6.4    2.6    0.1
H     4.9    3.2    0.9
