          13
 frame:         6675
O     1.1    0.0    0.3
C     2.3    0.1    0.1
C     3.0    1.3    0.0
N     4.3    1.4   -0.3
C     4.7    2.8   -0.2
C     3.3    3.6   -0.1
N     2.4    2.5    0.4
H     2.9   -0.8   -0.2
H     5.3    2.9    0.7
H     5.3    3.1   -1.1
H     3.0    4.0   -1.1
H     3.4    4.4    0.6
H     1.4    2.6    0.2
