          13
 frame:         6012
C     2.9   -0.9    0.8
O     2.9   -0.2   -0.4
N     3.4    1.1   -0.2
C     2.6    2.2    0.2
C     3.6    3.2    0.2
N     4.8    2.8   -0.2
C     4.7    1.5   -0.4
H     2.5   -1.9    0.6
H     2.3   -0.5    1.6
H     4.0   -1.1    1.1
H     1.6    2.1    0.4
H     3.4    4.3    0.4
H     5.4    0.8   -0.8
