          15
 frame:         4142
C     3.9   -1.1    0.1
O     3.0   -0.2   -0.6
C     3.3    1.1   -0.5
C     4.3    1.7    0.1
C     4.5    3.2    0.1
C     5.3    3.9    1.1
O     5.8    3.7   -0.2
H     3.6   -2.1   -0.1
H     4.0   -0.9    1.1
H     5.0   -1.0   -0.4
H     2.6    1.7   -1.1
H     5.1    1.1    0.7
H     3.7    3.7   -0.4
H     5.8    3.3    1.9
H     5.0    4.9    1.4
