          20
 frame:         2042
C     1.1    0.1    0.2
C     2.6   -0.1   -0.1
C     2.9   -0.8   -1.4
C     3.3    1.3   -0.1
C     3.9    1.9    1.2
N     4.8    1.3    0.2
C     5.6    2.3   -0.6
H     0.9    0.6    1.1
H     0.6   -0.9    0.2
H     0.7    0.7   -0.6
H     3.1   -0.6    0.7
H     2.5   -0.2   -2.3
H     2.5   -1.8   -1.4
H     4.0   -0.9   -1.6
H     3.0    2.0   -0.8
H     3.8    1.4    2.1
H     3.8    3.0    1.2
H     5.9    1.8   -1.5
H     6.5    2.5   -0.0
H     5.0    3.2   -0.8
