          15
 frame:         4373
O     1.0    0.1   -0.1
C     2.4   -0.1    0.0
C     2.9    1.1    0.9
O     4.1    0.6    1.5
C     4.1   -0.8    1.5
C     5.2   -1.6    2.0
C     2.9   -1.3    0.8
H     0.7   -0.5   -0.9
H     2.9   -0.0   -1.0
H     2.2    1.3    1.7
H     3.2    2.0    0.4
H     5.1   -2.6    1.9
H     6.0   -1.1    2.5
H     3.0   -2.2    0.2
H     2.1   -1.5    1.6
