          13
 frame:         4609
C     1.1   -1.1    0.9
C     1.1   -0.4   -0.4
C     0.9    1.1   -0.5
O    -0.5    1.4   -0.8
C    -1.4    0.7   -0.1
N    -1.2   -0.5    0.4
N    -0.1   -1.2    0.0
H     1.7   -2.0    1.0
H     1.0   -0.5    1.8
H     1.6   -0.8   -1.3
H     1.1    1.6    0.5
H     1.5    1.6   -1.2
H    -2.4    1.2    0.0
