          13
 frame:         5795
C     1.0   -0.2    0.1
N     2.5   -0.2    0.1
C     3.0    1.0   -0.1
N     2.3    2.2   -0.2
O     3.0    3.4    0.2
C     4.5    1.1   -0.1
C     5.7    1.1   -0.2
H     0.7   -1.3    0.3
H     0.6    0.1   -0.8
H     0.6    0.4    0.9
H     1.4    2.2    0.2
H     3.2    3.8   -0.6
H     6.8    1.2   -0.3
