          17
 frame:         2752
C     1.1    1.0   -0.2
N     2.5    1.4    0.1
C     3.4    0.5    0.2
N     4.7    0.7    0.7
C     5.8    0.6   -0.3
C     5.4    1.9    0.3
C     6.2    2.6    1.4
H     0.5    1.3    0.6
H     1.0   -0.1   -0.5
H     0.8    1.6   -1.1
H     3.1   -0.6   -0.0
H     5.6    0.4   -1.3
H     6.7    0.1    0.1
H     4.8    2.6   -0.4
H     6.7    1.9    2.0
H     5.5    3.2    2.0
H     7.0    3.2    0.9
