          15
 frame:         1922
C     1.0    0.1    0.2
C     2.5    0.0   -0.0
N     3.2    1.1    0.2
N     4.5    1.1   -0.1
C     5.2    0.0   -0.1
C     4.5   -1.3    0.2
C     3.1   -1.2   -0.5
H     0.7   -0.7    1.0
H     0.5   -0.2   -0.7
H     0.7    1.1    0.6
H     6.3    0.1   -0.3
H     5.2   -2.1   -0.2
H     4.4   -1.5    1.3
H     2.5   -2.1   -0.2
H     3.3   -1.2   -1.6
