          17
 frame:         6317
N     0.8   -0.3    0.2
C     2.3   -0.3    0.2
C     2.8    1.1   -0.2
C     4.3    1.2   -0.1
O     4.9    0.4   -1.1
N     6.3    0.5   -1.0
C     6.9   -0.2   -1.9
H     0.5   -1.2    0.5
H     0.5   -0.2   -0.8
H     2.8   -1.1   -0.5
H     2.6   -0.5    1.2
H     2.4    1.8    0.5
H     2.5    1.3   -1.2
H     4.7    0.9    0.9
H     4.6    2.3   -0.3
H     8.0   -0.2   -1.9
H     6.4   -0.8   -2.6
