          17
 frame:         5175
C     1.4   -0.2   -1.2
C     2.4   -0.4   -0.1
C     3.1    0.9    0.3
N     4.0    1.3   -0.8
C     4.1    2.6   -1.2
N     5.1    2.9   -2.1
O     3.3    3.5   -0.8
H     0.9   -1.1   -1.4
H     1.9    0.1   -2.1
H     0.6    0.6   -1.0
H     3.1   -1.2   -0.3
H     1.8   -0.7    0.9
H     3.7    0.7    1.2
H     2.5    1.7    0.5
H     4.9    0.8   -0.9
H     5.4    2.2   -2.7
H     5.0    3.8   -2.5
