          12
 frame:         6836
O     1.0    0.1   -0.3
N     2.4   -0.1    0.1
C     2.9    1.1    0.1
C     4.4    1.3    0.5
O     4.6    2.7    0.3
C     3.4    3.3   -0.1
C     2.4    2.4   -0.2
H     0.7   -0.9   -0.3
H     5.0    0.8   -0.2
H     4.6    1.0    1.5
H     3.5    4.4   -0.2
H     1.4    2.7   -0.6
