          13
 frame:         4834
C     1.0   -0.0   -0.1
C     2.5   -0.0    0.0
N     3.1   -1.3   -0.5
C     4.0   -0.9   -1.4
N     4.1    0.5   -1.5
C     3.2    1.1   -0.7
O     3.0    2.4   -0.6
H     0.6    0.9    0.3
H     0.6   -0.9    0.5
H     0.7   -0.1   -1.2
H     2.8    0.0    1.1
H     4.7   -1.5   -2.0
H     4.7    1.0   -2.2
