          13
 frame:         3137
C     1.1    1.2   -0.4
O    -0.2    1.6    0.1
C    -1.3    0.8   -0.1
C    -1.4   -0.5   -0.1
O    -0.5   -1.6    0.0
C     0.8   -1.3    0.1
C     1.6   -0.2    0.0
H     1.8    1.9   -0.0
H     1.1    1.2   -1.5
H    -2.2    1.4   -0.2
H    -2.4   -0.9   -0.3
H     1.3   -2.3    0.4
H     2.6   -0.3    0.2
