          16
 frame:         6462
O     1.0   -0.2   -0.1
C     2.4    0.0    0.0
C     3.4   -0.6   -1.1
C     4.4   -0.3    0.0
C     3.3   -0.8    1.0
N     4.5    1.2    0.1
C     3.0    1.4    0.1
H     0.6    0.3    0.6
H     3.5   -0.0   -2.0
H     3.2   -1.6   -1.3
H     5.4   -0.8   -0.0
H     3.1   -1.8    1.0
H     3.4   -0.4    2.1
H     4.9    1.4    0.9
H     2.7    2.1   -0.7
H     2.7    1.9    1.1
