          17
 frame:         4380
O     2.3   -0.9   -0.8
C     2.0    0.2   -0.0
C     3.2    1.1    0.1
C     3.5    2.1   -1.0
C     3.0    2.5    0.3
C     4.0    3.2    1.2
C     3.6    4.2    2.1
H     1.5   -1.6   -0.8
H     1.7   -0.2    1.0
H     1.1    0.8   -0.4
H     4.1    0.6    0.5
H     2.7    2.1   -1.8
H     4.5    2.3   -1.3
H     2.0    2.9    0.4
H     5.0    2.9    1.2
H     2.6    4.6    2.2
H     4.4    4.7    2.7
