          15
 frame:         2780
C     2.9   -1.1    0.5
N     2.6   -0.1   -0.5
N     3.3    1.1   -0.3
C     2.6    2.3    0.1
C     3.6    3.3    0.2
C     4.8    2.7   -0.1
C     4.6    1.4   -0.4
H     2.3   -2.0    0.3
H     2.5   -0.7    1.5
H     4.0   -1.3    0.6
H     2.8   -0.4   -1.4
H     1.6    2.3    0.2
H     3.4    4.3    0.5
H     5.8    3.2   -0.1
H     5.3    0.6   -0.6
