          20
 frame:         5924
C     1.9   -0.1    1.8
O     3.0    0.7    1.8
C     3.0    1.7    0.7
C     2.0    2.8    1.0
C     4.4    2.3    0.6
C     5.0    3.0    1.8
N     6.4    3.4    1.5
H     2.1   -0.9    2.5
H     1.7   -0.6    0.8
H     1.0    0.4    2.1
H     2.7    1.2   -0.2
H     2.1    3.3    2.0
H     0.9    2.4    1.0
H     2.0    3.6    0.2
H     4.5    2.9   -0.3
H     5.1    1.4    0.3
H     4.9    2.3    2.7
H     4.4    3.9    2.0
H     7.0    2.6    1.4
H     6.8    3.9    2.3
