          16
 frame:         4700
C     0.9    0.1    0.2
C     2.4   -0.0   -0.1
C     3.3    1.0    0.7
N     3.7   -0.1    1.6
C     3.2   -1.1    0.7
C     2.7    0.1   -1.6
O     3.4   -0.7   -2.2
H     0.8    0.1    1.3
H     0.4   -0.8   -0.2
H     0.5    1.0   -0.2
H     2.8    1.8    1.2
H     4.1    1.4    0.1
H     4.7   -0.2    1.8
H     4.0   -1.6    0.1
H     2.6   -1.9    1.2
H     2.2    0.9   -2.1
