          15
 frame:         4050
C     1.5   -0.2    1.4
C     2.7    0.5    0.7
O     2.3    1.1   -0.6
C     2.3    0.3   -1.7
C     2.6   -1.0   -1.8
C     3.2    1.6    1.5
O     3.4    1.6    2.7
H     1.8   -0.6    2.4
H     1.2   -1.1    0.8
H     0.7    0.5    1.5
H     3.5   -0.2    0.5
H     2.1    0.9   -2.6
H     2.9   -1.7   -0.9
H     2.6   -1.5   -2.8
H     3.4    2.6    1.0
