          14
 frame:          658
C     0.7    1.2   -0.2
C    -0.8    1.2    0.2
O    -1.4   -0.0   -0.2
C    -0.7   -1.1    0.2
O     0.7   -1.2   -0.2
C     1.4   -0.0    0.2
H     0.7    1.3   -1.3
H     1.2    2.1    0.2
H    -1.4    2.0   -0.2
H    -0.8    1.2    1.3
H    -0.7   -1.1    1.4
H    -1.2   -2.0   -0.1
H     1.5   -0.1    1.3
H     2.4   -0.1   -0.2
