          19
 frame:         2217
C     0.9   -0.4    0.1
C     2.4   -0.2   -0.2
C     2.8   -1.2   -1.3
C     2.7    1.2   -0.7
C     2.5    2.3    0.4
N     1.6    3.2    0.3
N     1.4    4.0    1.4
H     0.6    0.3    0.9
H     0.7   -1.4    0.5
H     0.2   -0.2   -0.7
H     3.0   -0.4    0.7
H     2.2   -1.0   -2.3
H     2.6   -2.2   -1.0
H     3.9   -1.1   -1.6
H     2.0    1.5   -1.5
H     3.7    1.3   -1.1
H     3.1    2.2    1.3
H     1.1    4.9    1.1
H     2.3    4.1    2.0
