          19
 frame:         1465
C     2.4   -0.9   -1.1
C     3.6   -0.3   -0.4
C     3.3    0.9    0.4
C     3.8    2.1    0.2
C     3.5    3.4    0.9
C     2.4    3.3    2.0
C     4.1    4.5    0.6
H     2.7   -1.8   -1.7
H     2.0   -0.2   -1.9
H     1.6   -1.2   -0.4
H     4.4   -0.1   -1.1
H     4.0   -1.1    0.3
H     2.5    0.8    1.1
H     4.6    2.2   -0.6
H     1.5    3.0    1.6
H     2.3    4.3    2.4
H     2.7    2.6    2.8
H     4.8    4.6   -0.2
H     3.9    5.5    1.1
