          15
 frame:         6031
C     2.1    0.1   -1.3
O     2.3    0.6    0.1
N     2.9    1.9    0.0
C     2.1    3.0    0.1
C     0.7    2.9    0.2
C     4.3    1.9    0.2
N     5.1    1.0    0.3
H     1.6   -0.9   -1.1
H     3.0    0.0   -1.8
H     1.4    0.8   -1.8
H     2.6    3.9    0.1
H     0.2    2.0    0.3
H     0.2    3.9    0.3
H     4.7    3.0    0.2
H     4.6    0.1    0.4
