          16
 frame:         2961
N     1.0   -0.0    0.2
C     2.5   -0.0    0.0
C     2.8   -0.8   -1.3
C     4.2   -0.9   -1.6
C     4.8   -2.0   -1.8
C     3.0    1.4    0.0
C     3.4    2.5    0.0
H     0.8    0.6    1.1
H     0.7   -1.0    0.4
H     3.0   -0.6    0.8
H     2.2   -0.2   -2.1
H     2.3   -1.8   -1.3
H     4.8    0.1   -1.7
H     4.3   -3.0   -1.8
H     5.9   -2.1   -2.0
H     3.8    3.5    0.0
