          12
 frame:          938
O     2.6   -1.2   -0.6
C     2.1   -0.1   -0.3
C     3.0    1.1    0.0
C     4.5    0.9    0.1
C     4.9    0.2    1.4
O     5.9    0.6    2.0
H     1.0    0.1   -0.2
H     2.6    1.6    1.0
H     2.7    1.9   -0.7
H     5.0    1.8   -0.1
H     4.7    0.2   -0.8
H     4.3   -0.6    1.7
