          21
 frame:         3901
C     1.9   -1.2   -1.6
C     3.0   -0.2   -1.1
C     2.4    1.2   -1.0
O     3.4    2.1   -0.6
C     2.9    3.4   -0.3
C     4.0    4.1    0.4
C     2.4    4.2   -1.5
H     2.4   -2.2   -1.6
H     1.5   -1.0   -2.5
H     1.1   -1.3   -0.8
H     3.8   -0.1   -1.9
H     3.4   -0.5   -0.2
H     1.6    1.2   -0.2
H     1.9    1.5   -1.9
H     2.0    3.3    0.4
H     4.9    4.2   -0.2
H     4.3    3.6    1.3
H     3.7    5.1    0.8
H     3.3    4.3   -2.2
H     2.1    5.2   -1.2
H     1.6    3.7   -2.1
