          15
 frame:         5829
C     1.4    1.0    0.5
N     2.7    0.9    0.6
N     3.5    1.9    0.1
C     4.8    1.6   -0.3
C     5.7    2.8   -0.4
C     6.7    2.9   -1.4
O     5.5    3.6   -1.6
H     0.8    0.2    1.0
H     0.9    1.9    0.1
H     3.0    2.6   -0.5
H     4.8    1.1   -1.3
H     5.2    0.8    0.4
H     5.8    3.3    0.5
H     6.9    2.1   -2.2
H     7.6    3.5   -1.2
