          12
 frame:          239
C    -0.8    1.2   -0.0
C     0.6    1.2   -0.0
C     1.4    0.1    0.0
C     0.8   -1.2    0.0
C    -0.6   -1.2    0.0
C    -1.4   -0.1   -0.0
H    -1.4    2.1   -0.0
H     1.1    2.2   -0.0
H     2.5    0.1    0.0
H     1.4   -2.1    0.0
H    -1.1   -2.2    0.0
H    -2.5   -0.1   -0.0
