          15
 frame:         2534
C     1.0   -0.0    0.5
C     2.4    0.0   -0.0
N     2.6   -0.5   -1.4
C     2.9   -1.8   -1.6
N     2.9   -2.5   -2.8
C     3.0    1.4    0.0
C     3.5    2.5    0.1
H     0.9    0.4    1.5
H     0.6   -1.0    0.5
H     0.4    0.6   -0.1
H     3.0   -0.7    0.6
H     2.2    0.0   -2.1
H     3.2   -2.4   -0.8
H     2.5   -1.9   -3.5
H     3.9    3.5    0.1
