          18
 frame:         5326
C     1.1    0.2    0.2
C     2.6   -0.1   -0.2
N     2.8   -0.6   -1.5
C     3.4    1.2   -0.1
O     3.6    1.8    1.3
C     4.7    1.3    0.5
C     5.7    2.4    0.1
H     1.0    0.6    1.2
H     0.6   -0.8    0.2
H     0.6    0.8   -0.5
H     3.0   -0.8    0.6
H     2.3   -0.0   -2.2
H     2.4   -1.5   -1.6
H     3.1    2.0   -0.8
H     5.2    0.4    0.9
H     5.2    3.3   -0.3
H     6.4    2.0   -0.7
H     6.3    2.7    1.0
