          16
 frame:         5301
C     2.2   -0.7   -0.5
C     3.4    0.4   -0.5
C     3.3    1.2    0.7
O     2.4    1.2    1.6
N     4.4    2.1    0.9
C     5.4    2.6   -0.0
O     4.2    3.0    2.0
H     2.3   -1.3   -1.4
H     1.3   -0.2   -0.5
H     2.3   -1.4    0.4
H     3.3    1.0   -1.4
H     4.3   -0.1   -0.6
H     5.5    1.9   -0.8
H     6.3    2.6    0.5
H     5.1    3.6   -0.4
H     3.3    2.6    2.4
