          17
 frame:         2388
C     1.1   -0.1    0.8
C     2.5    0.3    0.5
C     2.8    1.6    0.2
N     4.1    2.0   -0.1
C     4.5    3.4   -0.4
C     6.0    3.4   -0.8
N     3.8    4.4   -0.4
H     0.6   -0.8    0.1
H     0.4    0.8    0.9
H     1.1   -0.6    1.8
H     3.2   -0.5    0.4
H     2.1    2.4    0.3
H     4.8    1.3   -0.2
H     6.6    3.1    0.0
H     6.2    4.5   -1.0
H     6.2    2.9   -1.7
H     2.8    4.2   -0.1
