          14
 frame:          883
C     3.4   -2.0   -0.4
O     2.6   -0.8   -0.5
C     3.1    0.3    0.1
O     4.3    0.8   -0.7
C     5.0    1.8   -0.3
C     4.7    2.6    0.8
H     2.8   -2.8   -0.8
H     3.6   -2.2    0.6
H     4.3   -1.9   -1.0
H     3.5    0.1    1.1
H     2.4    1.1    0.1
H     5.8    2.1   -0.9
H     3.9    2.4    1.5
H     5.4    3.4    1.0
