          14
 frame:          835
C     1.6   -0.8   -0.4
C     3.0   -0.6   -0.3
O     3.9   -1.4   -0.4
C     3.4    0.9    0.0
C     4.9    1.1   -0.2
O     5.7    0.3    0.7
H     1.0   -0.4    0.4
H     1.4   -1.9   -0.5
H     1.2   -0.3   -1.4
H     3.1    1.1    1.1
H     2.9    1.6   -0.6
H     5.2    2.2    0.1
H     5.2    0.9   -1.2
H     5.5   -0.6    0.5
