          12
 frame:         7098
C     3.1   -1.2    0.5
O     2.4    0.0    0.3
C     3.1    1.1    0.2
C     2.6    2.4   -0.1
C     3.6    3.4   -0.1
N     4.9    2.9    0.2
S     4.8    1.3    0.4
H     2.4   -2.0    0.6
H     3.6   -1.1    1.5
H     3.8   -1.4   -0.3
H     1.5    2.6   -0.2
H     3.5    4.4   -0.2
