          17
 frame:          332
C     0.7    1.3   -0.2
C    -0.7    1.3    0.2
C    -1.4   -0.0   -0.2
N    -0.7   -1.3    0.2
C     0.7   -1.2   -0.2
C     1.5    0.0    0.2
H     0.8    1.4   -1.3
H     1.2    2.2    0.2
H    -1.3    2.1   -0.2
H    -0.8    1.3    1.3
H    -2.5   -0.1    0.2
H    -1.5   -0.0   -1.3
H    -0.8   -1.4    1.2
H     1.2   -2.2    0.1
H     0.7   -1.3   -1.3
H     1.6   -0.0    1.3
H     2.5   -0.0   -0.2
