          15
 frame:         6274
N     1.2   -0.2   -0.8
C     2.2    0.1    0.3
C     2.9    1.5    0.0
C     2.1    2.7    0.1
C     0.8    2.8    0.1
N     4.2    1.4   -0.2
O     4.8    2.6   -0.4
H     0.8   -1.1   -0.6
H     1.8   -0.3   -1.7
H     3.0   -0.6    0.4
H     1.6    0.2    1.2
H     2.7    3.6   -0.0
H     0.2    1.9    0.2
H     0.3    3.8    0.2
H     5.7    2.4   -0.5
