          18
 frame:         5481
C     4.0   -0.9   -0.9
C     2.9   -0.2   -0.2
O     2.5   -1.0    0.9
C     3.1    1.2    0.1
C     4.2    1.9   -0.1
C     4.3    3.4    0.3
N     5.6    3.5    1.1
H     4.2   -0.5   -1.9
H     3.8   -2.0   -1.1
H     5.0   -0.9   -0.3
H     2.0   -0.3   -0.9
H     3.2   -0.9    1.6
H     2.2    1.6    0.7
H     5.0    1.5   -0.6
H     3.4    3.7    0.8
H     4.4    4.0   -0.6
H     5.5    3.1    2.0
H     5.7    4.5    1.2
