          16
 frame:         6529
O     1.0    0.0    0.2
C     2.2    0.0    0.1
C     3.0   -1.3    0.0
C     4.0   -1.2   -1.2
N     4.8   -0.1   -1.2
C     4.1    1.2   -1.2
C     3.1    1.3    0.0
H     2.4   -2.1   -0.0
H     3.6   -1.4    1.0
H     4.7   -2.1   -1.2
H     3.4   -1.3   -2.1
H     5.5   -0.1   -0.5
H     4.7    2.0   -1.2
H     3.5    1.2   -2.1
H     3.7    1.4    0.9
H     2.4    2.1   -0.1
