          15
 frame:         1056
C     1.1   -0.2   -0.3
N     2.6   -0.1   -0.1
C     3.1    1.3   -0.0
C     4.5    1.3    0.2
C     5.5    1.5   -0.9
O     5.2    2.6    0.0
H     0.9   -1.3   -0.5
H     0.7    0.4   -1.1
H     0.7    0.1    0.6
H     3.1   -0.6   -0.9
H     2.5    1.7    0.8
H     2.8    1.9   -0.9
H     4.9    0.8    1.1
H     5.1    1.6   -1.9
H     6.5    1.1   -0.8
