          14
 frame:         5135
C     1.1    0.2   -0.0
C     2.6   -0.1   -0.1
C     2.9   -0.9   -1.3
N     3.1   -1.6   -2.2
C     3.4    1.2   -0.1
C     3.9    1.8    1.1
O     4.8    1.1    0.3
H     0.9    0.8    0.9
H     0.5   -0.8    0.0
H     0.7    0.8   -0.9
H     2.9   -0.7    0.8
H     3.2    1.8   -1.0
H     3.6    1.3    2.1
H     4.0    2.9    1.1
