          15
 frame:         5782
C     1.2    0.3   -1.5
N     2.6    0.2   -1.0
C     3.2    1.2   -0.6
N     4.5    1.2   -0.1
C     5.2   -0.1    0.0
C     5.1    2.4    0.3
O     6.2    2.4    0.8
H     1.2   -0.0   -2.5
H     0.9    1.4   -1.4
H     0.6   -0.3   -0.9
H     2.8    2.2   -0.6
H     4.6   -0.8    0.6
H     6.2    0.1    0.5
H     5.3   -0.5   -1.0
H     4.4    3.2    0.2
