          21
 frame:         2705
C     1.0   -0.1   -0.0
N     2.5   -0.0    0.0
C     3.0    1.4   -0.0
C     4.5    1.4   -0.0
C     5.0    2.9   -0.0
C     6.5    2.9   -0.0
N     7.0    4.3    0.0
H     0.7   -1.2   -0.1
H     0.6    0.4   -0.9
H     0.6    0.3    0.9
H     2.9   -0.6   -0.7
H     2.5    1.9    0.9
H     2.6    1.9   -0.9
H     4.9    0.9   -0.9
H     4.8    0.9    0.9
H     4.7    3.4    0.9
H     4.6    3.4   -0.9
H     6.9    2.3   -0.9
H     6.9    2.4    0.9
H     6.7    4.8   -0.8
H     8.0    4.3    0.0
