          16
 frame:         6691
O     2.8    2.8   -1.4
C     2.3    2.2   -0.4
C     3.0    1.2    0.4
C     4.4    0.8   -0.1
C     5.5    1.8    0.4
N     5.8    1.0    1.6
C     5.1   -0.2    0.9
H     1.3    2.5   -0.0
H     2.3    0.3    0.4
H     3.0    1.5    1.5
H     4.4    0.6   -1.1
H     5.1    2.9    0.6
H     6.3    1.9   -0.3
H     6.7    0.9    1.8
H     5.8   -0.8    0.3
H     4.5   -0.8    1.5
