          12
 frame:         4644
C     1.0    0.0   -0.2
C     2.3   -0.1    0.1
C     3.2   -1.2    0.2
C     4.5   -0.8    0.4
N     4.5    0.6    0.4
C     3.2    1.1    0.2
O     3.0    2.3    0.1
H     0.6    1.0   -0.2
H     0.4   -0.8   -0.2
H     2.9   -2.3    0.2
H     5.4   -1.4    0.5
H     5.3    1.2    0.5
