          14
 frame:          679
C     1.0   -0.0    0.1
C     2.5   -0.0   -0.1
C     3.0   -1.3   -0.9
C     3.5   -0.7   -2.2
C     3.4    0.7   -2.1
O     2.9    1.1   -0.9
H     0.6    0.9    0.5
H     0.7   -0.8    0.7
H     0.5   -0.1   -0.9
H     3.0    0.1    0.8
H     2.2   -2.0   -1.0
H     3.9   -1.8   -0.3
H     3.9   -1.2   -3.0
H     3.6    1.4   -2.9
