          16
 frame:         2038
C     0.9    0.0   -0.0
C     2.4    0.0   -0.0
C     3.6    0.0    0.0
C     5.0    0.0    0.0
C     5.8    1.1    0.9
C     6.8   -0.0    1.3
N     5.7   -1.0    0.9
H     0.5    1.0   -0.0
H     0.5   -0.5    0.8
H     0.5   -0.5   -0.9
H     5.4    0.1   -1.0
H     5.2    1.4    1.7
H     6.2    2.0    0.3
H     7.7   -0.1    0.6
H     7.1   -0.1    2.3
H     6.0   -1.8    0.3
