          15
 frame:         5708
C     1.3    0.2    0.3
N     2.8    0.1    0.1
C     3.4   -1.2    0.2
C     2.8   -2.4    0.5
C     3.5    1.2   -0.2
N     3.0    2.4   -0.3
O     4.0    3.3   -0.6
H     1.0    1.2    0.2
H     1.1   -0.2    1.3
H     0.8   -0.4   -0.4
H     4.5   -1.1    0.0
H     1.7   -2.4    0.7
H     3.4   -3.3    0.5
H     4.6    1.0   -0.3
H     3.5    4.1   -0.7
