          19
 frame:         4000
C     0.9   -0.1   -0.1
C     2.5   -0.1   -0.1
O     3.0   -0.9   -1.1
C     3.0    1.3   -0.1
C     4.5    1.4    0.1
C     5.1    2.8   -0.1
C     5.8    3.4    0.9
H     0.5    0.4    0.8
H     0.6   -1.1   -0.1
H     0.5    0.4   -0.9
H     2.8   -0.6    0.8
H     2.6   -0.5   -2.0
H     2.6    1.9    0.8
H     2.7    1.9   -1.0
H     5.0    0.8   -0.7
H     4.9    1.0    1.0
H     4.9    3.3   -1.0
H     6.0    3.0    1.8
H     6.2    4.5    0.7
