          18
 frame:         2638
C     3.0   -1.1   -0.5
N     2.4    0.1    0.1
C     3.3    1.3   -0.1
C     3.3    1.8   -1.5
C     3.3    3.3   -1.3
C     3.1    3.7   -0.0
C     2.8    2.5    0.8
H     2.4   -2.0   -0.3
H     4.0   -1.3   -0.2
H     3.0   -1.0   -1.6
H     2.3   -0.1    1.1
H     4.4    1.1    0.2
H     2.3    1.5   -2.0
H     4.1    1.5   -2.1
H     3.5    4.0   -2.1
H     3.0    4.7    0.3
H     3.4    2.5    1.8
H     1.8    2.4    1.1
