          15
 frame:         4260
O     1.0    0.1   -0.8
C     2.1    0.0    0.1
C     2.5   -1.3    0.9
C     3.9   -0.6    0.9
C     3.5   -0.1   -0.5
C     3.5    0.6    1.7
C     2.4    1.0    1.2
H     0.2    0.2   -0.2
H     2.5   -2.2    0.2
H     2.0   -1.5    1.8
H     4.8   -1.2    1.1
H     4.0    0.8   -0.9
H     3.6   -0.9   -1.3
H     4.1    1.1    2.5
H     1.7    1.9    1.4
