          22
 frame:         2170
C     3.0   -0.9   -1.0
C     2.5   -0.0    0.1
C     3.0    1.4    0.2
C     2.2    2.2    1.3
C     4.5    1.5    0.3
C     5.1    2.9    0.2
N     6.6    2.8    0.2
H     2.5   -1.9   -1.0
H     4.0   -1.0   -1.0
H     2.7   -0.4   -2.0
H     2.7   -0.5    1.1
H     1.4   -0.0    0.1
H     2.7    1.9   -0.8
H     2.5    1.8    2.3
H     1.1    2.1    1.1
H     2.5    3.3    1.3
H     5.0    0.9   -0.5
H     4.8    1.1    1.3
H     4.7    3.5    1.1
H     4.7    3.4   -0.7
H     6.9    2.4    1.0
H     7.0    3.8    0.1
