          20
 frame:         2656
C     1.1    2.3   -0.3
N     2.5    2.2   -0.5
C     3.2    1.2    0.3
C     4.7    1.1    0.1
C     5.5    2.3    0.6
C     6.6    1.3    1.0
C     5.5    0.2    1.0
H     0.7    3.1   -0.9
H     0.8    2.5    0.8
H     0.6    1.3   -0.6
H     3.0    3.1   -0.4
H     2.7    0.2    0.1
H     3.0    1.4    1.4
H     4.9    1.0   -0.9
H     5.1    2.8    1.5
H     5.8    3.1   -0.1
H     7.4    1.1    0.2
H     7.2    1.4    2.0
H     5.8   -0.8    0.6
H     5.1    0.1    2.0
