          14
 frame:         4678
C     0.9    0.1    0.1
C     2.4    0.1    0.0
C     3.2    1.1    0.9
C     4.0   -0.1    1.4
O     5.0   -0.3    2.0
N     3.1   -1.0    0.8
O     3.3   -2.3    0.4
H     0.5   -0.8   -0.3
H     0.5    0.9   -0.4
H     0.6    0.1    1.2
H     2.7    0.1   -1.0
H     2.6    1.6    1.6
H     3.8    1.8    0.3
H     2.8   -2.9    1.0
