          14
 frame:         6514
O     1.4    0.2    1.0
C     2.4    0.1    0.3
C     3.0   -1.3   -0.1
C     4.0   -1.3   -1.2
C     4.9   -0.0   -1.1
O     4.0    1.1   -1.2
N     3.2    1.1   -0.1
H     2.2   -2.0   -0.3
H     3.5   -1.7    0.9
H     4.7   -2.2   -1.2
H     3.5   -1.3   -2.2
H     5.5   -0.0   -0.2
H     5.6    0.1   -2.0
H     2.7    2.0   -0.0
