          15
 frame:         1536
C     0.7   -0.1   -0.0
C     2.1    0.4   -0.0
C     1.0    1.4   -0.2
C     0.7    2.5    0.8
N    -0.0    3.5   -0.0
C     0.1    3.2   -1.2
N     0.9    2.0   -1.5
H     0.2   -0.4    0.9
H     0.3   -0.7   -0.9
H     2.8    0.1   -0.8
H     2.6    0.4    1.0
H     1.6    2.9    1.2
H     0.0    2.1    1.6
H    -0.3    3.8   -2.1
H     0.6    1.5   -2.3
