          20
 frame:         5704
C     1.0    1.7    1.4
N     2.5    1.9    1.4
C     3.0    1.4    0.1
C     4.5    1.7    0.0
C     4.9    3.2   -0.0
C     4.3    3.9   -1.2
O     4.5    3.8    1.2
H     0.6    2.0    2.4
H     0.7    0.6    1.3
H     0.5    2.3    0.7
H     2.9    1.4    2.1
H     2.5    1.9   -0.7
H     2.9    0.3   -0.0
H     4.9    1.2   -0.9
H     5.0    1.2    0.9
H     6.0    3.3   -0.0
H     3.2    3.9   -1.2
H     4.7    3.5   -2.2
H     4.6    5.0   -1.2
H     3.6    3.5    1.4
