          13
 frame:         6593
O     1.4    0.2    0.9
C     2.4   -0.1    0.2
N     2.8   -1.3   -0.4
C     4.1   -1.3   -1.0
C     4.5    0.1   -0.9
N     3.6    1.1   -1.6
C     3.5    0.9   -0.1
H     2.1   -2.0   -0.4
H     4.8   -2.0   -0.6
H     4.0   -1.6   -2.1
H     5.6    0.3   -0.8
H     4.2    2.0   -1.7
H     3.8    1.7    0.6
