          12
 frame:         6895
O     2.7   -1.8    0.0
N     3.7   -0.7   -0.2
C     3.5    0.4    0.4
O     2.4    0.6    1.1
C     4.5    1.5    0.3
C     5.8    1.1   -0.4
C     6.8    0.7   -0.9
H     2.1   -1.2    0.6
H     4.6   -1.1   -0.5
H     4.7    1.9    1.3
H     4.1    2.4   -0.3
H     7.7    0.4   -1.4
