          16
 frame:         6297
N     0.4   -0.1   -0.2
C     1.8   -0.1    0.1
C     2.4    1.3   -0.0
C     1.8    2.5   -0.1
O     3.8    1.2   -0.0
C     4.5    2.3    0.4
C     5.8    2.5   -0.1
H     0.0   -1.0    0.0
H     0.2    0.1   -1.2
H     2.5   -0.7   -0.6
H     2.0   -0.4    1.1
H     0.7    2.4   -0.1
H     2.2    3.4   -0.2
H     4.0    3.0    1.1
H     6.2    1.9   -0.8
H     6.4    3.4    0.3
