          13
 frame:         1348
C     1.0    0.0   -0.1
C     2.2    0.0   -0.0
C     3.6   -0.0   -0.0
C     4.8   -0.0    0.0
C     6.2   -0.0    0.0
C     7.0   -0.8   -1.1
C     7.0    0.8   -1.0
H    -0.1    0.1   -0.1
H     6.7   -0.1    1.0
H     6.4   -1.2   -1.9
H     7.9   -1.3   -0.8
H     7.9    1.2   -0.7
H     6.4    1.3   -1.8
