          15
 frame:         4054
C     3.7   -1.1   -0.8
C     3.6    0.0    0.2
O     4.9    0.6    0.3
C     5.0    1.7    1.2
C     4.0    2.2    1.9
C     6.4    2.2    1.2
O     6.8    3.1    1.9
H     2.8   -1.6   -0.9
H     4.4   -1.9   -0.4
H     4.1   -0.8   -1.8
H     3.3   -0.3    1.2
H     2.9    0.8   -0.2
H     3.0    1.9    1.9
H     4.3    3.1    2.5
H     7.1    1.6    0.6
