          18
 frame:         4574
C    -1.5    0.8    0.1
C    -1.5   -0.8   -0.1
N    -0.3   -1.5    0.3
C     0.9   -1.2   -0.4
C     1.7    0.1   -0.1
O     0.9    1.2    0.4
C    -0.2    1.5   -0.4
H    -2.4    1.2   -0.4
H    -1.6    1.0    1.2
H    -1.6   -1.0   -1.1
H    -2.4   -1.2    0.4
H    -0.1   -1.4    1.3
H     1.6   -2.1   -0.4
H     0.6   -1.2   -1.5
H     2.4   -0.2    0.8
H     2.3    0.3   -0.9
H    -0.4    2.6   -0.3
H    -0.1    1.2   -1.5
