          17
 frame:         1576
C     1.8   -0.1   -0.0
C     0.9   -1.3    0.5
C    -0.4   -1.5   -0.3
C    -1.5   -0.4   -0.1
N    -1.4    0.8    0.3
N    -0.1    1.4    0.5
C     0.9    1.1   -0.5
H     2.4   -0.5   -0.9
H     2.5    0.1    0.8
H     1.4   -2.2    0.6
H     0.6   -1.1    1.6
H    -0.9   -2.5   -0.0
H    -0.2   -1.6   -1.4
H    -2.5   -0.8   -0.2
H    -0.3    2.4    0.5
H     1.6    1.9   -0.5
H     0.5    0.9   -1.5
