          17
 frame:          408
C     2.8   -1.4   -0.4
C     2.2   -0.1    0.2
C     3.3    1.1    0.3
N     4.5    0.9    1.1
C     3.5    1.9   -1.0
C     2.7    2.5    0.2
H     2.0   -2.2   -0.4
H     3.6   -1.8    0.2
H     3.2   -1.2   -1.4
H     1.9   -0.3    1.2
H     1.4    0.2   -0.4
H     4.2    0.7    2.1
H     5.0    0.1    0.8
H     2.9    1.6   -1.8
H     4.5    2.2   -1.1
H     3.3    3.2    0.8
H     1.7    2.6    0.2
