          13
 frame:         7119
C     1.0   -1.2   -0.1
S     2.4   -0.1   -0.1
O     3.2   -0.2    1.1
O     3.0   -0.0   -1.5
O     1.4    1.3    0.0
C     2.0    2.5    0.1
C     1.4    3.7    0.2
H     0.4   -1.0   -1.0
H     0.5   -1.1    0.8
H     1.5   -2.2   -0.2
H     3.1    2.5   -0.1
H     0.3    3.7    0.3
H     1.9    4.6    0.2
