          19
 frame:         3917
C     1.3   -0.5    1.8
C     1.8   -0.9    0.4
C     2.4   -2.3    0.3
O     0.7   -0.8   -0.5
C     1.0   -0.8   -1.9
C    -0.3   -0.3   -2.6
O    -0.7    1.0   -2.2
H     0.8    0.5    1.8
H     2.1   -0.6    2.5
H     0.5   -1.2    2.1
H     2.5   -0.1    0.1
H     1.7   -3.0    0.6
H     3.3   -2.3    1.0
H     2.8   -2.5   -0.7
H     1.3   -1.8   -2.3
H     1.8   -0.1   -2.1
H    -1.1   -1.1   -2.5
H    -0.0   -0.2   -3.7
H    -0.7    0.9   -1.3
