          16
 frame:         5572
C     1.1   -0.4    0.4
C     2.6   -0.3   -0.0
O     3.1    1.0    0.5
N     4.5    1.1    0.2
C     5.0    2.2    0.6
C     6.4    2.4    0.3
O     7.0    1.4   -0.4
H     0.7   -1.3   -0.0
H     0.6    0.5   -0.1
H     1.0   -0.3    1.5
H     2.8   -0.3   -1.1
H     3.2   -1.1    0.4
H     4.4    2.9    1.1
H     7.0    2.6    1.3
H     6.5    3.4   -0.2
H     6.4    0.7   -0.5
