          15
 frame:         1854
C     0.9    0.0    0.0
C     2.4    0.0    0.0
C     3.3    1.1   -0.0
N     4.6    0.7   -0.0
C     4.6   -0.7    0.1
C     3.3   -1.1    0.1
N     2.8   -2.5    0.2
H     0.6    1.1    0.0
H     0.5   -0.5    0.9
H     0.5   -0.5   -0.9
H     3.1    2.2   -0.1
H     5.4    1.2   -0.0
H     5.5   -1.3    0.1
H     1.9   -2.6   -0.3
H     3.5   -3.2   -0.1
