          15
 frame:         3592
C     1.4   -0.3    1.1
C     2.2   -0.1    0.1
C     3.1    1.1   -0.1
C     4.5    0.8   -0.1
C     5.4    1.0   -1.0
C     6.8    0.6   -0.8
O     7.7    0.8   -1.7
H     0.8   -1.2    1.2
H     1.2    0.5    1.9
H     2.4   -0.9   -0.7
H     2.8    1.8    0.7
H     2.8    1.6   -1.1
H     4.9    0.4    0.9
H     5.2    1.4   -2.0
H     7.1    0.2    0.2
