          16
 frame:         2346
C     1.0    0.1    0.2
C     2.1    0.1   -0.1
C     3.5    0.2   -0.4
N     4.3    0.9    0.7
C     5.8    0.8    0.4
C     6.3    2.0   -0.4
C     6.6    1.9    1.1
H    -0.1   -0.0    0.5
H     3.7    0.8   -1.3
H     3.9   -0.8   -0.6
H     4.1    0.4    1.6
H     6.2   -0.1    0.2
H     5.6    2.8   -0.7
H     7.1    1.8   -1.1
H     7.6    1.6    1.4
H     6.1    2.6    1.8
