          16
 frame:         6137
N     1.0    0.1    0.1
C     2.5   -0.1   -0.1
C     2.9   -1.5   -0.6
O     3.0   -1.4   -2.0
C     3.3   -0.0   -2.3
C     2.2    0.9   -2.5
C     3.0    0.9   -1.2
H     0.8    1.0    0.3
H     0.7   -0.5    0.9
H     3.1    0.1    0.9
H     2.1   -2.2   -0.4
H     3.8   -1.8   -0.2
H     4.2    0.1   -2.9
H     2.4    1.8   -3.1
H     1.2    0.5   -2.4
H     3.7    1.7   -0.9
