          17
 frame:         6740
O     0.9    2.6   -1.6
C     2.3    2.3   -1.7
C     2.8    1.9   -0.3
C     4.2    1.6   -0.2
N     5.1    2.8   -0.4
N     6.4    2.5   -0.7
C     7.3    3.4   -0.4
H     0.7    2.9   -2.5
H     2.9    3.2   -2.0
H     2.5    1.5   -2.4
H     2.2    1.1    0.1
H     2.5    2.8    0.4
H     4.5    0.8   -0.9
H     4.4    1.1    0.8
H     4.9    3.5    0.2
H     8.3    3.2   -0.7
H     7.0    4.4    0.1
