          16
 frame:         6757
O     3.0   -0.9   -1.1
C     2.3   -0.2   -0.0
C     2.7    1.3   -0.1
N     4.2    1.4    0.1
C     4.6    2.8   -0.1
C     4.4    3.6    1.2
O     4.3    4.8    1.2
H     2.8   -1.8   -1.0
H     2.7   -0.6    0.9
H     1.2   -0.3   -0.1
H     2.2    1.8    0.7
H     2.4    1.7   -1.1
H     4.6    0.8   -0.6
H     4.2    3.3   -0.9
H     5.7    2.8   -0.3
H     4.4    3.0    2.1
