          15
 frame:         4441
O     0.4    1.6    0.2
C     1.6    1.2    0.2
C     2.7    2.1    0.0
C     4.0    1.7    0.0
C     5.2    2.4   -0.1
C     5.3    3.6   -1.1
C     5.4    3.8    0.4
H     1.9    0.2    0.3
H     2.5    3.2   -0.1
H     4.1    0.6    0.2
H     6.2    1.8   -0.1
H     4.4    3.9   -1.6
H     6.2    3.7   -1.6
H     6.3    4.1    0.9
H     4.5    4.2    0.9
