          16
 frame:          260
C     1.0    0.2   -0.6
C     2.4    0.1    0.0
C     2.9   -1.1    0.5
C     3.1    1.4    0.1
C     2.9    2.2    1.4
C     4.3    1.6    1.1
H     1.1    0.6   -1.6
H     0.4    0.9   -0.0
H     0.5   -0.8   -0.7
H     2.3   -2.0    0.4
H     3.9   -1.2    0.9
H     3.2    1.9   -0.8
H     2.3    1.8    2.2
H     2.8    3.3    1.2
H     5.1    2.2    0.7
H     4.6    0.8    1.7
