          12
 frame:          612
N     5.3   -1.9   -0.6
C     4.5   -1.1   -0.3
C     3.6    0.0    0.1
C     4.3    1.4    0.1
C     4.4    2.2   -1.1
N     3.4    2.5   -0.1
H     3.1   -0.2    1.0
H     2.8    0.1   -0.7
H     5.1    1.4    0.9
H     4.0    1.9   -2.0
H     5.3    2.9   -1.1
H     3.7    3.3    0.6
