          16
 frame:          338
C     0.7    1.2   -0.2
C    -0.8    1.2    0.3
N    -1.4    0.0   -0.2
C    -0.8   -1.2    0.2
C     0.7   -1.2   -0.2
N     1.4   -0.0    0.2
H     0.7    1.3   -1.3
H     1.2    2.1    0.2
H    -1.3    2.1   -0.1
H    -0.8    1.3    1.4
H    -2.4    0.0    0.0
H    -0.8   -1.3    1.4
H    -1.3   -2.1   -0.1
H     1.2   -2.1    0.2
H     0.7   -1.3   -1.3
H     1.6   -0.0    1.2
