          17
 frame:         1394
C     0.8    0.7   -1.1
C     2.3    0.6   -1.1
C     3.1    1.2   -0.1
C     4.6    1.2   -0.0
C     5.3    0.3   -1.1
C     5.2    2.5    0.0
C     5.6    3.6    0.1
H     0.5    1.1   -2.0
H     0.4    1.3   -0.3
H     0.4   -0.3   -1.1
H     2.8    0.0   -1.8
H     2.6    1.8    0.7
H     4.8    0.7    0.9
H     5.1    0.8   -2.1
H     5.0   -0.7   -1.1
H     6.4    0.3   -1.0
H     6.0    4.7    0.1
