          14
 frame:         5266
C     0.9   -0.1   -0.1
C     2.4    0.1   -0.2
C     3.0   -0.9   -1.3
O     2.5   -1.9   -1.6
C     2.7    1.5   -0.6
N     3.2    2.3    0.5
O     2.6    1.9   -1.7
H     0.5    0.4    0.8
H     0.7   -1.2    0.0
H     0.4    0.2   -1.0
H     2.9   -0.2    0.7
H     4.0   -0.5   -1.7
H     3.2    1.9    1.4
H     3.4    3.3    0.3
