          15
 frame:         5834
C     1.4    1.9   -0.3
N     2.5    2.3   -0.6
N     3.5    2.1    0.4
C     4.9    2.1   -0.2
C     5.2    3.5   -0.8
C     6.7    3.6   -1.3
O     7.5    2.7   -1.3
H     0.6    2.1   -1.0
H     1.1    1.3    0.7
H     3.4    1.4    1.1
H     5.0    1.3   -0.9
H     5.6    1.9    0.6
H     5.1    4.3   -0.1
H     4.6    3.7   -1.6
H     6.9    4.5   -1.8
