          18
 frame:         6742
O     0.9    2.3   -0.5
C     2.3    2.3   -0.7
C     2.9    1.3    0.2
N     4.4    1.4    0.1
C     5.1    2.5    0.8
C     6.2    1.5    1.2
C     5.1    0.4    1.0
H     0.5    2.9   -1.1
H     2.7    3.4   -0.5
H     2.6    2.1   -1.7
H     2.6    0.3   -0.0
H     2.6    1.6    1.3
H     4.6    2.9    1.7
H     5.4    3.3    0.1
H     7.0    1.4    0.5
H     6.6    1.6    2.2
H     5.4   -0.5    0.5
H     4.6    0.1    1.9
