          16
 frame:         5179
C     0.9   -0.1    0.1
C     2.4    0.1   -0.1
C     2.9   -0.7   -1.3
N     2.4   -0.2   -2.6
C     2.8    1.6   -0.1
O     2.8    2.2   -1.4
O     3.0    2.2    0.8
H     0.6    0.5    1.0
H     0.6   -1.1    0.2
H     0.3    0.4   -0.7
H     2.9   -0.3    0.8
H     2.7   -1.8   -1.1
H     4.0   -0.6   -1.4
H     1.4   -0.5   -2.7
H     2.9   -0.6   -3.4
H     2.6    1.4   -2.0
