          16
 frame:         1558
C    -0.5   -1.6   -0.3
C     0.8   -1.2    0.5
C     1.2    0.2    0.4
N     1.1    0.9   -0.9
C     0.1    1.2    0.2
C    -1.3    0.8    0.1
C    -1.6   -0.6   -0.2
H    -0.8   -2.6   -0.1
H    -0.2   -1.6   -1.4
H     1.6   -1.9    0.2
H     0.6   -1.4    1.6
H     2.0    0.6    1.1
H     1.8    1.6   -1.0
H     0.2    2.2    0.7
H    -2.1    1.5    0.2
H    -2.6   -0.9   -0.3
