          16
 frame:          916
O     2.1   -1.1   -0.9
C     2.0    0.3   -0.6
C     3.0    0.5    0.6
C     4.4    0.2    0.3
C     5.3    1.3   -0.3
C     5.5    0.8    1.1
H     1.5   -1.2   -1.7
H     1.0    0.6   -0.3
H     2.4    0.9   -1.4
H     2.6   -0.2    1.4
H     2.9    1.5    1.0
H     4.7   -0.8   -0.1
H     4.8    2.3   -0.4
H     6.0    1.1   -1.0
H     6.4    0.3    1.4
H     5.2    1.5    1.9
