          12
 frame:          904
O     0.9    0.0    0.2
C     2.3   -0.0    0.0
C     3.1    1.1    0.8
C     4.0   -0.0    1.3
O     5.1    0.0    1.9
C     3.2   -1.1    0.8
H     0.5   -0.7   -0.3
H     2.6    0.0   -1.1
H     2.4    1.4    1.7
H     3.5    1.9    0.3
H     3.7   -1.9    0.2
H     2.5   -1.6    1.6
