          13
 frame:         7053
C     1.8   -0.8    1.3
C     2.4   -0.4    0.2
S     3.3    1.1    0.0
O     2.9    1.7   -1.2
O     3.3    1.8    1.3
C     5.0    0.5   -0.2
C     5.7    0.6   -1.3
H     1.2   -1.6    1.4
H     1.9   -0.1    2.2
H     2.3   -1.0   -0.8
H     5.4    0.1    0.7
H     5.1    1.1   -2.2
H     6.7    0.3   -1.4
