          14
 frame:         4895
C     1.1    0.1    0.2
C     2.3   -0.1   -0.3
O     2.6   -1.2   -1.0
C     4.1   -1.3   -1.2
C     4.6    0.1   -0.8
N     4.0    1.2   -1.7
C     3.4    0.8   -0.3
H     0.8    1.0    0.7
H     0.3   -0.8    0.2
H     4.5   -2.0   -0.6
H     4.3   -1.5   -2.3
H     5.6    0.2   -0.5
H     4.5    2.0   -1.6
H     3.5    1.6    0.5
