          15
 frame:         4204
C     4.3   -0.4    1.5
O     3.9    0.9    1.9
C     3.1    1.5    0.9
C     2.5    2.8    1.4
C     2.7    3.3    2.6
C     4.0    2.0   -0.3
O     3.7    2.0   -1.4
H     4.8   -0.8    2.4
H     4.9   -0.4    0.6
H     3.4   -1.1    1.3
H     2.3    0.9    0.5
H     1.8    3.3    0.7
H     3.4    2.8    3.3
H     2.2    4.2    2.9
H     5.0    2.3    0.1
