          15
 frame:         1459
C     0.9   -0.0   -0.0
C     2.4   -0.0   -0.0
C     3.6   -0.0    0.0
C     5.1   -0.0    0.0
C     5.6    1.4    0.0
C     7.1    1.5    0.0
C     8.3    1.5   -0.0
H     0.5    1.0    0.0
H     0.5   -0.5    0.9
H     0.5   -0.5   -0.9
H     5.5   -0.5   -0.9
H     5.5   -0.5    0.9
H     5.2    2.0    0.9
H     5.2    2.0   -0.9
H     9.4    1.5   -0.0
