          14
 frame:         6205
N     2.2   -0.4   -1.4
C     2.4    0.0   -0.0
C     3.1    1.3   -0.0
C     2.4    2.6   -0.5
O     2.5    3.2    0.8
C     3.2    2.1    1.3
O     3.7    1.9    2.4
H     1.5   -1.2   -1.4
H     3.0   -0.8   -1.8
H     3.0   -0.7    0.6
H     1.4    0.2    0.5
H     4.1    1.2   -0.5
H     1.3    2.4   -0.7
H     2.9    3.2   -1.3
