          15
 frame:         4872
C     1.1   -0.0    0.2
C     2.5    0.1   -0.1
N     3.2   -0.9   -0.5
O     4.5   -0.6   -0.8
C     4.7    0.8   -0.2
C     3.3    1.4   -0.1
N     2.8    2.2   -1.1
H     0.7   -1.0    0.0
H     0.5    0.7   -0.3
H     0.9    0.2    1.3
H     5.4    1.3   -0.9
H     5.2    0.7    0.8
H     3.2    1.9    0.9
H     3.0    1.8   -2.0
H     3.3    3.1   -1.1
