          12
 frame:         5297
C     0.5    1.2   -0.1
C     1.2    0.1   -0.1
C     2.7    0.2   -0.2
O     3.3    1.2   -0.3
N     3.4   -1.1   -0.2
C     4.7   -1.2   -0.3
O     5.3   -2.3   -0.3
H    -0.6    1.2    0.1
H     1.0    2.2   -0.2
H     0.8   -0.9    0.1
H     2.8   -1.9   -0.1
H     5.3   -0.3   -0.5
