          12
 frame:         2258
C     1.0    0.1   -0.1
C     2.5   -0.0   -0.0
C     3.1   -1.2    0.1
C     2.5   -2.5    0.2
N     2.0   -3.5    0.3
C     3.2    1.2   -0.1
C     3.8    2.3   -0.2
H     0.6    0.7    0.8
H     0.5   -0.9    0.0
H     0.6    0.6   -1.0
H     4.2   -1.2    0.1
H     4.3    3.2   -0.2
