          14
 frame:         6495
O     1.9    0.5    1.1
C     2.7    0.1    0.3
C     2.8   -1.3   -0.3
C     4.2   -1.4   -1.0
C     4.7    0.1   -1.0
C     3.8    1.2   -1.5
N     3.9    0.9   -0.1
H     1.9   -1.4   -0.9
H     2.8   -2.1    0.5
H     4.9   -2.0   -0.5
H     4.1   -1.7   -2.1
H     5.8    0.2   -0.9
H     4.2    2.1   -1.8
H     2.9    0.9   -2.0
