          14
 frame:         4550
C    -0.9    0.0   -1.3
C    -0.6    1.0   -0.1
O    -1.3    0.0    0.7
C    -0.6   -1.0   -0.1
C     0.8   -0.8    0.3
N     1.8   -0.0   -0.6
C     0.8    0.8    0.3
H    -1.9    0.0   -1.6
H    -0.2    0.0   -2.2
H    -1.0    2.0   -0.1
H    -1.0   -2.0   -0.1
H     1.3   -1.4    1.1
H     1.5   -0.0   -1.5
H     1.3    1.4    1.1
