          12
 frame:         5881
C     3.1   -1.2    0.5
O     2.4    0.0    0.2
C     3.1    1.1    0.1
N     2.5    2.3   -0.2
O     3.5    3.2   -0.2
C     4.7    2.6   -0.0
C     4.5    1.3    0.2
H     2.4   -2.0    0.6
H     3.6   -1.1    1.5
H     3.8   -1.4   -0.3
H     5.5    3.3   -0.1
H     5.3    0.6    0.4
