          12
 frame:          681
C     0.9    0.0   -0.0
C     2.4   -0.0   -0.0
C     3.3    1.1    0.0
O     4.6    0.7    0.0
C     4.6   -0.7    0.0
C     3.3   -1.2    0.0
H     0.6    1.1    0.0
H     0.5   -0.5    0.9
H     0.5   -0.5   -0.9
H     3.1    2.1    0.0
H     5.5   -1.2    0.0
H     3.0   -2.2    0.0
