          17
 frame:         3100
C     0.6    1.1   -0.3
C    -0.6    0.2    0.1
C     0.8   -0.4   -0.0
C     1.6   -0.8    1.1
C     1.5   -0.1    2.5
C     1.3   -1.5    3.1
O     1.2   -2.1    1.8
H     0.7    1.4   -1.4
H     1.0    1.8    0.4
H    -1.3   -0.1   -0.6
H    -0.9    0.4    1.1
H     0.9   -1.1   -0.9
H     2.7   -1.0    0.8
H     0.6    0.5    2.6
H     2.4    0.4    2.9
H     2.2   -1.9    3.6
H     0.4   -1.7    3.7
