          13
 frame:         1987
C     1.0    0.0    0.0
C     2.2   -0.0    0.0
C     3.6   -0.0   -0.0
C     4.3   -1.3    0.6
N     4.6   -0.8    2.0
N     4.7    0.6    2.0
C     4.2    1.1    0.9
H    -0.1    0.0    0.0
H     4.0    0.1   -1.1
H     5.2   -1.5    0.1
H     3.6   -2.1    0.6
H     5.3   -1.2    2.5
H     4.2    2.1    0.8
