          18
 frame:         2124
C     1.0    0.1    0.2
C     2.5   -0.1    0.2
C     3.0   -1.4    0.5
C     2.3   -2.5    0.7
C     3.3    1.0    0.0
C     4.8    1.0    0.1
N     5.3    1.7   -1.1
H     0.8    1.1   -0.1
H     0.6   -0.2    1.1
H     0.6   -0.6   -0.6
H     4.1   -1.6    0.5
H     1.2   -2.5    0.8
H     2.7   -3.5    0.9
H     2.9    1.9   -0.2
H     5.3    0.0    0.2
H     5.1    1.6    0.9
H     5.1    1.2   -2.0
H     6.3    1.8   -1.1
