          17
 frame:         3565
C     3.0    2.3    2.8
C     3.6    1.5    1.9
C     3.3    1.4    0.4
C     4.5    1.7   -0.5
C     5.1    3.1   -0.4
C     6.2    3.4    0.5
O     6.4    3.3   -1.0
H     3.2    2.3    3.8
H     2.2    3.0    2.4
H     4.3    0.8    2.2
H     2.5    2.2    0.1
H     2.8    0.5    0.1
H     4.2    1.5   -1.6
H     5.3    0.9   -0.2
H     4.4    3.9   -0.6
H     6.7    2.6    1.0
H     6.3    4.4    0.9
