          16
 frame:         2436
C     2.3   -0.5   -1.4
C     2.5    0.0    0.0
N     3.0    1.4    0.1
C     2.2    2.5   -0.0
C     3.1    3.6   -0.0
C     4.4    3.1    0.0
C     4.3    1.7    0.1
H     1.9   -1.5   -1.4
H     3.3   -0.5   -1.9
H     1.6    0.1   -2.0
H     3.2   -0.6    0.6
H     1.5    0.0    0.5
H     1.2    2.5   -0.0
H     2.8    4.7   -0.1
H     5.4    3.7    0.0
H     5.1    1.0    0.1
