          15
 frame:         3589
C     2.9   -1.1    0.2
C     2.3    0.0    0.1
C     2.9    1.4    0.0
C     2.1    2.5   -0.1
C     4.4    1.5   -0.0
C     5.0    1.2   -1.4
O     5.9    1.9   -1.8
H     2.4   -2.1    0.3
H     4.0   -1.2    0.3
H     1.2    0.0    0.0
H     1.0    2.4   -0.1
H     2.5    3.5   -0.2
H     4.8    0.8    0.7
H     4.7    2.5    0.3
H     4.5    0.4   -1.9
