          13
 frame:         1910
C     1.0   -0.1   -0.2
C     2.4    0.0    0.1
N     3.2   -1.1    0.3
C     4.5   -0.6    0.6
N     5.6   -1.3    0.8
C     4.5    0.8    0.4
C     3.2    1.2    0.1
H     0.5   -1.0   -0.2
H     0.5    0.9   -0.4
H     2.9   -2.0    0.3
H     5.4   -2.3    0.9
H     5.4    1.4    0.6
H     2.8    2.2   -0.0
