          16
 frame:         6033
C     6.1    0.3    0.4
O     5.9    1.7   -0.1
N     4.5    2.0   -0.1
C     4.3    3.2   -0.5
C     2.9    3.7   -0.5
C     1.8    2.7   -0.2
O     1.9    2.2    1.1
H     7.2    0.1    0.2
H     5.5   -0.4   -0.2
H     5.8    0.3    1.4
H     5.2    3.8   -0.9
H     2.7    4.2   -1.5
H     2.9    4.6    0.2
H     1.8    1.9   -0.9
H     0.8    3.2   -0.2
H     2.8    1.7    1.1
