          14
 frame:         2083
C     1.4   -0.3   -1.1
C     2.3   -0.0   -0.1
C     3.0    1.3    0.0
C     2.7    2.0    1.3
C     2.1    3.2    1.3
C     4.5    1.0   -0.0
N     5.6    0.8   -0.0
H     0.9   -1.2   -1.1
H     1.2    0.4   -1.9
H     2.5   -0.8    0.7
H     2.8    1.9   -0.9
H     2.9    1.5    2.2
H     1.9    3.8    0.4
H     1.8    3.7    2.2
