          13
 frame:         1084
C     1.0   -0.1    0.0
O     2.4    0.0   -0.0
C     2.9    1.4    0.0
C     4.4    1.3   -0.0
C     5.0    2.7   -0.0
N     5.5    3.8    0.0
H     0.8   -1.1    0.0
H     0.6    0.4   -0.9
H     0.6    0.4    0.9
H     2.5    1.9    0.9
H     2.5    1.9   -0.9
H     4.8    0.8   -0.9
H     4.8    0.8    0.9
