          14
 frame:         6945
C     0.9    0.0    0.0
C     2.4    0.1   -0.0
C     3.2    1.2   -0.0
S     4.9    0.9   -0.1
C     4.6   -0.8   -0.1
N     5.7   -1.7   -0.2
C     3.3   -1.1   -0.0
H     0.5    1.0    0.1
H     0.6   -0.6    0.9
H     0.5   -0.5   -0.9
H     2.8    2.3    0.0
H     5.5   -2.6    0.1
H     6.5   -1.4    0.3
H     2.9   -2.1   -0.0
