          15
 frame:         3213
C     1.1   -0.1    0.1
C     2.4    0.0   -0.1
C     3.2    1.3   -0.0
C     4.5    0.9   -0.8
C     4.5   -0.6   -0.7
C     5.5   -1.4   -0.8
O     3.2   -1.0   -0.4
H     0.7   -1.1    0.0
H     0.5    0.7    0.3
H     3.5    1.5    1.0
H     2.7    2.2   -0.4
H     4.3    1.2   -1.9
H     5.4    1.4   -0.5
H     5.4   -2.5   -0.7
H     6.5   -1.1   -1.1
