          16
 frame:         6743
O     1.6    2.8   -0.4
C     2.4    2.0   -0.5
C     3.0    1.2    0.6
N     4.4    0.8    0.4
C     5.4    1.8    0.6
C     6.3    0.6    1.1
C     5.0   -0.2    1.3
H     2.8    1.7   -1.5
H     2.4    0.2    0.7
H     2.8    1.7    1.6
H     5.2    2.5    1.5
H     5.8    2.4   -0.2
H     7.0    0.2    0.3
H     6.9    0.8    2.0
H     5.0   -1.2    0.9
H     4.6   -0.1    2.3
