          15
 frame:         5352
C     1.0    0.0   -0.1
C     2.5   -0.1    0.1
N     3.0   -1.4    0.1
C     3.2    1.1    0.1
C     4.7    1.1    0.2
N     5.3    2.2    0.3
O     6.7    2.0    0.4
H     0.7    1.0   -0.1
H     0.5   -0.5    0.8
H     0.6   -0.5   -1.0
H     2.4   -2.1   -0.3
H     4.0   -1.5   -0.1
H     2.7    2.0    0.1
H     5.3    0.2    0.2
H     7.1    2.9    0.5
