          17
 frame:         1278
C     1.0    0.1    0.6
C     2.2   -0.0   -0.0
C     2.9    1.2   -0.5
C     4.3    1.3    0.1
C     5.0   -0.0    0.1
C     4.4   -1.2   -0.0
C     2.9   -1.3   -0.3
H     0.5    1.0    0.7
H     0.5   -0.8    1.0
H     2.4    2.1   -0.4
H     3.1    1.1   -1.6
H     4.2    1.7    1.2
H     5.0    2.0   -0.4
H     6.1   -0.0    0.3
H     5.0   -2.1   -0.0
H     2.7   -1.7   -1.3
H     2.5   -2.1    0.4
