          13
 frame:         4867
C     1.0   -0.1    0.1
C     2.5    0.0   -0.0
N     3.2   -1.0   -0.1
N     4.6   -0.6   -0.2
C     4.8    0.8   -0.2
O     5.8    1.3   -0.2
C     3.3    1.3   -0.0
H     0.7   -1.1    0.1
H     0.5    0.5   -0.7
H     0.7    0.4    1.0
H     5.3   -1.3   -0.3
H     3.1    1.9   -0.9
H     3.2    1.9    0.9
