          19
 frame:         1836
C     1.0    0.0    0.1
C     2.5    0.0   -0.1
C     3.0   -1.3   -0.6
N     2.6   -1.5   -2.0
C     3.2   -0.4   -2.8
C     2.7    0.9   -2.3
N     2.9    1.2   -0.9
H     0.6    1.0    0.5
H     0.7   -0.8    0.8
H     0.5   -0.2   -0.8
H     2.9    0.2    0.9
H     2.6   -2.2   -0.0
H     4.1   -1.3   -0.5
H     2.9   -2.4   -2.4
H     4.3   -0.4   -2.8
H     2.9   -0.6   -3.9
H     3.2    1.8   -2.9
H     1.6    1.0   -2.5
H     3.9    1.3   -0.7
