          15
 frame:         3274
C     0.9   -0.1    0.5
C     2.3    0.1   -0.2
C     3.2    1.2    0.5
C     4.0    0.0    1.2
O     5.4    0.0    1.4
C     3.4   -0.9    0.2
O     3.8   -1.9   -0.3
H     0.4   -1.0    0.1
H     0.3    0.8    0.3
H     1.0   -0.2    1.6
H     2.2    0.1   -1.3
H     2.8    1.9    1.1
H     3.9    1.6   -0.3
H     3.5   -0.1    2.2
H     5.8   -0.6    0.7
