          12
 frame:         2800
C     0.8    1.8   -0.0
N     2.1    2.1   -0.0
N     2.9    1.0    0.1
C     4.3    1.1    0.1
C     5.0    2.3   -0.0
C     6.4    2.3    0.0
N     7.5    2.4    0.0
H     0.2    2.7   -0.1
H     0.4    0.8    0.1
H     2.5    0.1    0.2
H     4.8    0.2    0.2
H     4.4    3.2   -0.1
