          17
 frame:         2880
N     0.9    0.1    0.1
C     2.4    0.0    0.0
C     3.1    1.1    0.8
N     4.5    0.6    1.2
C     4.2   -0.8    1.5
C     3.0   -1.2    0.6
C     2.6   -2.5    0.4
H     0.6   -0.8   -0.1
H     0.6    0.8   -0.5
H     2.8    0.1   -1.0
H     2.5    1.3    1.8
H     3.2    2.1    0.3
H     5.1    0.7    0.4
H     5.1   -1.4    1.3
H     4.0   -0.9    2.5
H     1.7   -2.7   -0.2
H     3.1   -3.3    0.9
