          13
 frame:          435
C     0.9    0.1   -0.1
C     2.4   -0.0   -0.0
C     3.0   -1.4   -0.0
C     3.1    1.1    0.1
C     4.5    1.1    0.2
N     5.7    1.2    0.3
H     0.5    1.1   -0.1
H     0.4   -0.5    0.7
H     0.6   -0.4   -1.1
H     2.6   -2.0    0.8
H     4.1   -1.3    0.1
H     2.7   -1.9   -1.0
H     2.6    2.1    0.1
