          18
 frame:         5672
C     1.1   -0.2   -0.6
N     2.6   -0.1   -0.5
C     3.1    0.9    0.4
C     4.6    1.0    0.3
O     5.2    1.7    1.4
C     5.5    0.3    1.2
C     6.9   -0.1    0.9
H     0.8   -0.9   -1.3
H     0.6    0.8   -0.8
H     0.8   -0.5    0.4
H     2.9    0.1   -1.5
H     2.8    0.7    1.4
H     2.6    1.9    0.2
H     5.0    1.2   -0.7
H     5.0   -0.3    2.0
H     7.3    0.5    0.1
H     6.9   -1.2    0.6
H     7.5   -0.0    1.8
