          16
 frame:         2030
C     0.9   -0.0   -0.0
C     2.4   -0.0    0.0
C     3.6   -0.0    0.1
C     5.1    0.0    0.1
C     5.8   -0.7   -1.0
C     5.9    0.8   -1.0
N     7.1    1.5   -0.7
H     0.5    1.0   -0.1
H     0.5   -0.5    0.9
H     0.6   -0.6   -0.9
H     5.5   -0.0    1.1
H     5.3   -1.2   -1.8
H     6.8   -1.2   -0.7
H     5.2    1.3   -1.7
H     7.7    0.9   -0.1
H     6.9    2.4   -0.2
