          16
 frame:          376
C     0.8    0.2   -0.3
C     2.3   -0.0    0.1
C     2.5    0.1    1.6
N     1.8   -1.0    2.3
C     3.2   -0.9   -0.8
N     3.2    0.6   -0.8
H     0.7    0.2   -1.4
H     0.4    1.1    0.1
H     0.2   -0.7    0.0
H     2.3    1.1    1.9
H     3.6   -0.1    1.7
H     0.8   -0.8    2.3
H     2.1   -1.0    3.3
H     2.8   -1.3   -1.7
H     4.0   -1.4   -0.3
H     4.1    0.9   -0.3
