          20
 frame:         5688
C     0.7    0.2    1.2
N     1.9    0.7    1.8
C     2.8    1.4    0.9
C     2.2    2.6    0.3
C     4.1    1.7    1.6
C     4.0    2.7    2.8
O     3.1    2.2    3.8
H     0.2   -0.5    1.9
H     0.9   -0.4    0.3
H     0.0    1.0    1.0
H     2.4   -0.1    2.2
H     3.1    0.7    0.0
H     1.8    3.3    1.1
H     1.3    2.4   -0.4
H     2.9    3.2   -0.3
H     4.9    2.1    0.9
H     4.6    0.8    2.0
H     3.6    3.7    2.4
H     5.0    2.9    3.2
H     2.4    1.8    3.3
