          18
 frame:         6618
O     1.7   -0.2   -1.2
C     2.2    0.2    0.1
C     3.2    1.3   -0.1
C     2.6    2.6   -0.8
C     2.8    3.7    0.2
N     2.9    3.0    1.5
C     3.7    1.8    1.2
H     1.0   -0.9   -1.1
H     2.7   -0.7    0.6
H     1.4    0.5    0.7
H     4.0    0.9   -0.7
H     1.5    2.4   -0.9
H     3.0    2.8   -1.8
H     3.8    4.2   -0.0
H     2.0    4.5    0.3
H     3.3    3.6    2.3
H     4.8    2.1    1.1
H     3.6    1.1    2.0
