          13
 frame:         5304
C     0.5    0.6    1.4
C     1.3    0.1    0.5
C     2.6    0.7    0.2
O     3.1    1.7    0.8
N     3.5    0.0   -0.7
N     3.1   -1.1   -1.3
C     4.0   -1.6   -2.2
H    -0.5    0.2    1.6
H     0.8    1.6    1.9
H     1.1   -0.9    0.0
H     4.4    0.5   -0.9
H     3.7   -2.5   -2.7
H     4.9   -1.1   -2.4
