          17
 frame:         3865
C     0.6    0.9    1.0
C     2.0    1.5    0.9
C     2.4    2.4    0.0
O     3.6    3.0    0.1
C     4.1    3.8   -0.9
C     3.2    4.2   -2.1
C     5.3    4.3   -0.7
H     0.1    1.1    1.9
H     0.7   -0.2    0.9
H     0.0    1.2    0.1
H     2.7    1.2    1.8
H     1.7    2.7   -0.8
H     2.9    3.3   -2.6
H     3.7    4.9   -2.7
H     2.2    4.7   -1.7
H     5.9    4.1    0.1
H     5.7    5.0   -1.4
