          12
 frame:          397
C     1.0    0.1   -0.0
C     2.5   -0.0   -0.0
N     3.2    1.0   -0.0
N     4.6    0.6    0.0
C     4.6   -0.7    0.0
C     3.3   -1.3    0.0
H     0.7    1.1   -0.0
H     0.5   -0.4    0.9
H     0.6   -0.4   -0.9
H     5.6   -1.2    0.0
H     3.1   -1.9   -0.9
H     3.1   -1.9    0.9
