          14
 frame:         6035
C     5.7   -0.4    1.0
O     6.2    0.9    0.8
N     5.2    1.8    0.4
C     5.6    3.0    0.2
C     7.0    3.5    0.3
C     4.4    3.9   -0.2
O     4.6    5.1   -0.4
H     5.0   -0.4    1.8
H     6.6   -1.0    1.3
H     5.2   -0.8    0.1
H     7.4    3.3    1.3
H     7.0    4.6    0.1
H     7.6    3.0   -0.4
H     3.4    3.4   -0.2
