          12
 frame:         5606
C     1.0    0.0   -0.1
N     2.4   -0.0    0.4
O     3.1    1.1    0.1
C     4.5    0.7   -0.2
O     5.3    1.6   -0.4
C     4.5   -0.7   -0.0
C     3.2   -1.1    0.3
H     0.5    0.9    0.4
H     0.5   -0.9    0.3
H     0.9    0.1   -1.1
H     5.4   -1.4   -0.1
H     2.8   -2.1    0.4
