          15
 frame:         6883
O     0.9    0.7   -0.3
N     2.1    0.9   -1.1
C     2.3   -0.1   -2.0
N     1.5   -1.0   -2.4
C     3.2    1.3   -0.2
C     4.3    2.2   -0.8
C     3.3    2.8    0.2
H     0.4    1.5   -0.5
H     3.3   -0.0   -2.4
H     0.6   -0.9   -1.9
H     3.5    0.6    0.5
H     4.2    2.5   -1.9
H     5.3    1.9   -0.5
H     3.7    3.0    1.2
H     2.6    3.5   -0.2
