          15
 frame:         7155
N     1.2    0.1    0.3
C     2.5    0.1   -0.1
S     3.4   -1.4   -0.2
N     3.0    1.2   -0.5
C     2.7    2.6   -0.0
C     4.1    3.1   -0.4
C     4.5    1.6   -0.6
H     0.6    0.9    0.0
H     0.7   -0.8    0.4
H     2.4    2.7    1.0
H     1.9    3.1   -0.7
H     4.2    3.7   -1.2
H     4.7    3.5    0.5
H     4.8    1.3   -1.6
H     5.1    1.1    0.1
