          17
 frame:         4106
C     1.0    0.1   -0.2
O     2.4    0.1   -0.0
C     3.1    1.3   -0.1
C     4.4    1.4   -0.3
C     4.9    2.8   -0.2
C     3.5    3.6   -0.2
C     2.4    2.6    0.2
H     0.7   -0.9   -0.2
H     0.8    0.5   -1.3
H     0.5    0.7    0.5
H     5.0    0.5   -0.5
H     5.4    2.9    0.8
H     5.6    3.1   -1.0
H     3.4    3.9   -1.2
H     3.6    4.5    0.5
H     1.5    2.8   -0.3
H     2.2    2.7    1.3
