          14
 frame:         6711
O     3.3   -1.5    0.6
C     2.9   -0.5   -0.3
C     3.0    0.8    0.3
C     3.8    1.9   -0.2
C     3.9    3.2    0.5
C     3.5    4.3   -0.4
N     3.1    5.1   -1.2
H     3.0   -2.4    0.3
H     1.9   -0.7   -0.7
H     3.6   -0.6   -1.2
H     2.4    1.0    1.2
H     4.4    1.7   -1.1
H     4.9    3.4    0.8
H     3.2    3.2    1.4
