          13
 frame:         3533
C     1.3    0.2    0.5
C     2.5    0.1    0.1
C     3.8   -0.1   -0.4
O     4.7    0.9    0.1
C     5.1    0.6    1.4
C     4.9   -1.0    1.4
O     4.4   -1.3    0.1
H     0.3    0.3    0.8
H     3.9   -0.1   -1.5
H     6.1    0.9    1.5
H     4.5    1.1    2.1
H     5.9   -1.5    1.6
H     4.2   -1.3    2.2
