          13
 frame:           71
C     1.6   -1.0    0.8
C     2.4   -0.3   -0.1
C     3.3    0.8    0.2
C     4.8    0.5   -0.1
C     5.5    1.2   -0.9
H     1.0   -1.8    0.4
H     1.6   -0.7    1.8
H     2.4   -0.6   -1.2
H     3.2    1.1    1.3
H     3.0    1.7   -0.3
H     5.2   -0.3    0.5
H     5.1    2.0   -1.5
H     6.5    0.9   -1.1
