          17
 frame:         3742
C     0.6   -0.2    0.3
C     2.1   -0.0    0.4
C     2.8    1.1    0.1
C     4.3    1.2    0.1
O     4.7    2.2    1.0
C     6.0    2.5    1.1
C     7.0    1.8    0.5
H     0.3   -1.0   -0.4
H     0.1    0.8   -0.0
H     0.2   -0.4    1.3
H     2.7   -0.9    0.7
H     2.3    2.0   -0.3
H     4.7    1.4   -0.9
H     4.7    0.2    0.5
H     6.2    3.3    1.7
H     6.9    1.0   -0.2
H     8.1    2.2    0.6
