          20
 frame:         2049
C     1.1   -0.1    0.3
C     2.6    0.0   -0.1
C     3.0   -0.8   -1.3
C     3.1    1.5   -0.2
C     3.1    2.3    1.1
N     4.6    2.1    1.2
C     4.6    1.7   -0.2
H     0.9    0.5    1.2
H     0.8   -1.1    0.4
H     0.5    0.4   -0.6
H     3.2   -0.4    0.8
H     2.4   -0.4   -2.2
H     2.6   -1.9   -1.2
H     4.0   -0.8   -1.5
H     2.6    1.9   -1.1
H     2.5    1.9    1.9
H     2.8    3.4    0.9
H     5.1    2.9    1.5
H     5.0    2.5   -0.9
H     5.3    0.8   -0.4
