          20
 frame:         2161
C     2.1   -0.7    1.5
C     2.7   -0.3    0.1
C     3.3    1.1    0.1
C     4.5    1.6   -0.0
C     5.7    0.7   -0.3
C     4.9    3.0    0.0
N     5.8    3.3    1.2
H     1.6   -1.7    1.4
H     1.3    0.0    1.8
H     2.8   -0.7    2.3
H     2.0   -0.3   -0.7
H     3.5   -1.0   -0.1
H     2.5    1.9    0.4
H     5.5   -0.4   -0.1
H     6.6    0.9    0.3
H     6.0    0.7   -1.4
H     3.9    3.6    0.1
H     5.4    3.3   -0.9
H     5.3    3.2    2.0
H     6.1    4.3    1.1
