          17
 frame:         6221
N     2.0   -0.2   -1.3
C     2.3    0.1    0.1
C     3.5    1.1    0.1
N     3.2    2.4   -0.6
C     2.9    3.1    0.7
C     3.6    1.9    1.5
O     4.9    2.2    1.9
H     1.1   -0.8   -1.4
H     2.8   -0.8   -1.7
H     2.5   -0.7    0.7
H     1.4    0.6    0.5
H     4.4    0.6   -0.2
H     2.5    2.4   -1.3
H     3.3    4.1    0.8
H     1.8    3.2    0.9
H     3.0    1.5    2.3
H     5.4    2.6    1.2
