          14
 frame:          720
C     1.0   -0.3   -0.3
C     1.6    0.6    0.5
C     2.7    1.5    0.1
C     2.6    3.0    0.5
O     4.0    3.0    1.1
C     4.0    1.5    1.0
H     0.2   -0.9    0.1
H     1.3   -0.4   -1.4
H     1.3    0.6    1.6
H     3.0    1.3   -1.0
H     1.8    3.2    1.2
H     2.5    3.7   -0.3
H     4.9    1.2    0.5
H     3.9    1.0    1.9
