          18
 frame:         2141
C     0.9   -0.1    0.1
C     2.5   -0.0    0.0
C     2.9   -0.8   -1.2
C     3.0    1.4    0.0
C     2.6    2.2    1.3
C     4.5    1.4   -0.1
N     5.6    1.5   -0.2
H     0.6    0.3    1.1
H     0.6   -1.1    0.1
H     0.5    0.5   -0.7
H     2.9   -0.5    0.9
H     2.5   -0.3   -2.2
H     2.6   -1.8   -1.2
H     4.0   -0.8   -1.3
H     2.6    1.9   -0.9
H     2.9    1.7    2.2
H     1.5    2.4    1.3
H     3.0    3.2    1.3
