          17
 frame:         5378
C     1.4   -0.1   -0.5
C     2.8   -0.2   -0.1
N     3.5    1.1   -0.3
C     4.8    1.3    0.1
N     5.7    0.4    0.5
C     5.3    2.7   -0.1
O     4.2    3.7    0.1
H     0.8   -1.0   -0.4
H     1.3    0.2   -1.6
H     0.8    0.7    0.0
H     3.3   -1.0   -0.7
H     2.9   -0.5    1.0
H     3.0    1.9   -0.4
H     5.3   -0.5    0.6
H     5.6    2.8   -1.2
H     6.2    2.9    0.5
H     4.1    3.8    1.0
