          14
 frame:          728
C     0.9   -0.1   -0.6
C     2.3    0.0   -0.1
C     3.0   -1.0    0.3
C     2.8    1.4   -0.1
C     3.1    2.2    1.1
O     4.2    1.6    0.3
H     0.8    0.2   -1.6
H     0.2    0.5    0.0
H     0.5   -1.1   -0.5
H     2.6   -2.0    0.4
H     4.1   -0.8    0.7
H     2.6    2.0   -1.0
H     2.9    1.7    2.1
H     3.0    3.3    1.1
