          19
 frame:         4172
C     1.4    2.0    2.8
O     2.7    2.5    2.4
C     2.9    2.4    0.9
C     2.0    3.3    0.1
C     4.4    2.6    0.7
C     5.2    1.6    1.4
C     6.2    0.8    0.8
H     1.5    2.1    3.9
H     1.3    0.9    2.6
H     0.6    2.6    2.5
H     2.6    1.3    0.7
H     2.3    4.3    0.3
H     0.9    3.2    0.3
H     2.2    3.1   -1.0
H     4.6    3.6    1.1
H     4.5    2.6   -0.4
H     5.1    1.5    2.5
H     6.3    0.9   -0.3
H     6.8    0.1    1.3
