          16
 frame:         4636
C     1.0   -0.0    0.2
C     2.5    0.0   -0.1
C     2.7    0.0   -1.6
C     3.2    1.1    0.8
C     4.0   -0.1    1.4
O     4.8   -0.2    2.3
N     3.2   -1.0    0.7
H     0.8   -0.0    1.3
H     0.5   -1.0   -0.2
H     0.4    0.8   -0.2
H     3.8    0.1   -1.8
H     2.3    0.9   -2.0
H     2.4   -0.9   -2.0
H     2.6    1.7    1.4
H     3.9    1.8    0.2
H     3.3   -2.0    0.7
