          19
 frame:         3596
C     0.6    0.5   -0.6
C     2.1    0.6   -0.8
C     2.9    1.2    0.1
C     4.4    1.3   -0.0
C     4.9    2.8    0.0
C     4.5    3.6   -1.2
O     5.0    5.0   -1.1
H     0.1    0.9   -1.4
H     0.3    0.9    0.3
H     0.3   -0.6   -0.6
H     2.5    0.2   -1.7
H     2.5    1.6    1.0
H     4.7    0.9   -1.0
H     4.9    0.8    0.8
H     6.0    2.8    0.1
H     4.6    3.3    1.0
H     3.4    3.7   -1.2
H     4.8    3.2   -2.1
H     4.7    5.4   -0.3
