          17
 frame:         3879
C     0.9   -0.8    0.7
C     2.0   -0.9   -0.3
C     2.7   -2.2   -0.2
O     1.4   -0.7   -1.6
C     2.4   -0.3   -2.6
C     1.7    0.1   -3.8
C     1.1    0.4   -4.8
H     0.4    0.1    0.7
H     1.3   -1.0    1.8
H     0.1   -1.6    0.5
H     2.7   -0.1   -0.1
H     2.0   -3.1   -0.5
H     3.2   -2.4    0.8
H     3.6   -2.3   -0.9
H     3.0   -1.2   -2.8
H     3.0    0.5   -2.2
H     0.7    0.8   -5.7
