          20
 frame:         2683
C     3.1   -1.0   -0.5
N     2.6    0.0    0.4
C     3.4    1.3    0.3
C     2.6    2.3    1.2
C     4.8    1.2    0.6
C     5.3    0.7    2.0
C     5.7    1.6   -0.3
H     2.6   -1.9   -0.4
H     4.2   -1.2   -0.4
H     3.0   -0.7   -1.6
H     2.6   -0.3    1.3
H     3.2    1.7   -0.7
H     2.6    2.0    2.3
H     1.6    2.4    0.9
H     3.1    3.3    1.2
H     4.9   -0.3    2.2
H     4.9    1.4    2.8
H     6.4    0.7    2.0
H     5.4    1.9   -1.3
H     6.8    1.5   -0.1
