          17
 frame:         2415
C     1.1    0.3   -0.7
C     2.5   -0.1   -0.1
C     2.7   -1.6   -0.0
N     3.3    0.8    0.2
N     4.5    0.3    0.7
C     5.6    1.3    0.3
C     5.1    1.3    1.6
H     1.0    1.4   -0.7
H     0.3   -0.1   -0.1
H     0.9   -0.1   -1.7
H     1.9   -2.2   -0.3
H     3.0   -1.8    1.0
H     3.6   -1.9   -0.6
H     5.3    2.1   -0.4
H     6.6    0.8    0.1
H     5.6    0.8    2.5
H     4.4    2.1    1.9
