          19
 frame:         1825
C     1.0    0.0   -0.2
C     2.5    0.0    0.0
C     3.0    1.1    1.0
N     4.4    0.7    1.4
C     4.5   -0.8    1.2
C     3.1   -1.2    0.7
N     3.2   -2.5   -0.2
H     0.7   -0.8   -0.9
H     0.7    0.9   -0.7
H     0.5   -0.1    0.8
H     3.1    0.2   -0.9
H     2.4    1.1    1.9
H     3.1    2.1    0.6
H     5.1    1.1    0.8
H     5.3   -1.1    0.5
H     4.7   -1.3    2.2
H     2.5   -1.5    1.5
H     3.8   -2.2   -1.0
H     2.3   -2.8   -0.5
