          12
 frame:         5085
C     0.9   -0.0    0.1
C     2.5   -0.1   -0.0
C     3.2   -1.2    0.1
C     3.1    1.2   -0.3
O     2.5    2.3   -0.4
C     4.6    1.2   -0.4
N     5.8    1.3   -0.5
H     0.6    0.7    0.9
H     0.5   -1.0    0.3
H     0.5    0.4   -0.9
H     2.7   -2.1    0.3
H     4.3   -1.1    0.0
