          13
 frame:          141
C     0.9   -0.0    0.0
C     2.4    0.0    0.0
C     3.2    1.0    0.9
O     4.0   -0.0    1.5
C     3.2   -1.1    0.8
H     0.5   -0.9   -0.5
H     0.5    0.9   -0.4
H     0.5   -0.1    1.1
H     2.8    0.1   -1.0
H     2.5    1.5    1.7
H     3.8    1.8    0.5
H     3.8   -1.8    0.3
H     2.6   -1.6    1.6
