          18
 frame:         6325
N     1.6    0.2   -0.0
C     2.8   -0.2   -0.8
C     2.2   -1.1   -1.9
O     1.1   -0.6   -2.6
C     3.4    1.0   -1.5
C     4.4    1.9   -0.7
C     4.9    1.0   -1.8
H     1.9    1.1    0.5
H     1.4   -0.5    0.6
H     3.5   -0.7   -0.2
H     1.9   -2.1   -1.4
H     3.0   -1.4   -2.6
H     0.6   -0.1   -1.9
H     2.8    1.6   -2.1
H     4.6    1.5    0.4
H     4.4    3.0   -0.8
H     5.2    1.5   -2.7
H     5.5    0.1   -1.6
