          14
 frame:         6387
N     1.2   -0.3   -0.5
C     1.7    0.5    0.5
O     1.4    0.4    1.7
C     2.8    1.5    0.1
C     2.6    2.9    0.6
O     4.0    3.0    1.1
C     4.1    1.5    0.9
H     1.5   -0.2   -1.4
H     0.5   -1.0   -0.2
H     3.0    1.4   -1.0
H     1.8    3.0    1.4
H     2.4    3.7   -0.2
H     5.0    1.2    0.4
H     4.0    1.0    1.9
