          21
 frame:         1487
C     2.8   -1.4    0.0
C     2.3   -0.2    0.9
C     2.9    1.2    0.5
C     2.2    2.3    1.3
C     4.4    1.3    0.6
C     5.0    1.0    2.0
C     5.7    1.9    2.7
H     2.3   -2.3    0.3
H     3.9   -1.5    0.2
H     2.6   -1.2   -1.1
H     2.5   -0.3    1.9
H     1.2   -0.1    0.8
H     2.7    1.4   -0.6
H     2.4    2.2    2.3
H     1.1    2.3    1.1
H     2.6    3.3    0.9
H     4.8    2.3    0.2
H     4.9    0.5   -0.1
H     4.8    0.1    2.4
H     5.9    2.9    2.3
H     6.0    1.7    3.7
