          15
 frame:         3049
N     0.7    2.8    0.1
N     1.7    1.9    0.1
C     2.9    2.3    0.1
C     4.0    1.4    0.1
C     5.3    1.8    0.1
C     6.4    1.0    0.1
C     7.7    1.4    0.1
H    -0.2    2.3    0.4
H     0.8    3.7    0.5
H     3.1    3.4    0.2
H     3.8    0.4   -0.0
H     5.5    2.9    0.2
H     6.2   -0.1   -0.0
H     8.0    2.4    0.2
H     8.6    0.6    0.1
