          15
 frame:         4413
O     0.7    0.5    0.4
C     1.9    0.2    0.3
C     3.0    1.2   -0.1
C     2.5    2.6   -0.4
C     3.1    3.5    0.7
O     3.5    2.6    1.8
C     4.0    1.4    1.1
H     2.2   -0.8    0.6
H     3.5    0.7   -0.9
H     1.4    2.6   -0.3
H     2.7    3.0   -1.4
H     4.0    4.0    0.3
H     2.5    4.2    1.2
H     5.0    1.6    0.7
H     4.0    0.6    1.8
