          14
 frame:         6872
O     0.6   -0.1   -0.8
N     1.5   -0.3    0.2
C     2.5   -1.3   -0.1
C     2.0   -2.7   -0.1
C     2.5   -3.7    0.7
C     1.8    0.7    1.1
O     2.7    0.8    1.9
H    -0.2   -0.6   -0.5
H     3.3   -1.2    0.7
H     3.0   -1.0   -1.1
H     1.2   -3.0   -0.9
H     3.3   -3.5    1.4
H     2.1   -4.7    0.6
H     1.0    1.5    1.0
