          17
 frame:         3220
C     0.9   -0.1    0.0
C     2.4   -0.1   -0.0
C     3.0    0.1    1.3
C     3.0   -1.3   -0.8
C     3.5   -0.7   -2.1
C     3.4    0.7   -2.0
O     2.8    1.1   -0.8
H     0.5   -0.1   -1.0
H     0.5    0.9    0.5
H     0.5   -0.9    0.6
H     4.1    0.1    1.3
H     2.8   -0.8    2.0
H     2.7    1.0    1.8
H     2.1   -2.0   -1.0
H     3.7   -1.8   -0.3
H     3.9   -1.2   -2.9
H     3.7    1.4   -2.7
