          16
 frame:         1528
C    -1.8    0.8    0.3
C    -1.1   -0.3   -0.3
C    -0.3   -1.3    0.5
N     0.8   -0.5    1.1
C     1.8   -0.1    0.0
C     0.8    0.9    0.5
C    -0.5    1.0   -0.4
H    -2.7    1.3   -0.1
H    -1.8    0.8    1.4
H    -1.6   -0.7   -1.2
H    -0.9   -1.6    1.4
H     0.1   -2.1   -0.0
H     2.8    0.0    0.3
H     1.6   -0.5   -1.0
H     1.0    1.7    1.2
H    -0.4    1.6   -1.3
