          14
 frame:         4780
C     0.8    0.0   -0.0
C     2.4    0.0   -0.0
C     3.0   -0.0    1.3
O     2.8   -1.1   -0.8
C     3.4   -0.6   -1.9
N     3.5    0.7   -2.0
O     2.9    1.1   -0.8
H     0.5    0.0   -1.1
H     0.5    0.9    0.5
H     0.5   -0.9    0.5
H     4.1   -0.1    1.2
H     2.7   -0.9    1.9
H     2.7    0.9    1.9
H     3.9   -1.3   -2.7
