          17
 frame:         4471
O     0.7   -0.1   -0.1
C     2.1   -0.0   -0.1
C     2.6    1.4   -0.0
C     1.8    2.5    0.2
C     4.1    1.5   -0.1
C     4.9    0.9    1.0
C     5.8   -0.1    0.9
H     0.4   -1.0   -0.1
H     2.5   -0.4   -1.1
H     2.6   -0.6    0.7
H     0.7    2.3    0.2
H     2.2    3.5    0.2
H     4.4    2.6   -0.1
H     4.5    1.1   -1.1
H     4.6    1.2    2.0
H     6.1   -0.4   -0.1
H     6.3   -0.5    1.8
