          15
 frame:         4346
O     1.0    0.1   -0.0
C     2.4   -0.0    0.0
C     3.0    1.1    0.9
C     4.4    0.7    1.3
C     4.3   -0.8    1.3
O     5.2   -1.6    1.8
C     3.0   -1.3    0.7
H     0.7   -0.6   -0.7
H     2.8    0.0   -1.0
H     2.3    1.2    1.8
H     2.9    2.1    0.3
H     5.1    0.9    0.5
H     4.7    1.1    2.2
H     3.1   -2.2    0.1
H     2.3   -1.6    1.5
