          15
 frame:         6653
O     2.4   -0.3   -1.5
C     2.4    0.0   -0.1
C     3.2    1.3    0.0
C     3.4    1.8    1.5
N     3.5    3.2    1.3
N     2.8    3.6    0.2
C     2.6    2.5   -0.6
H     1.8   -1.1   -1.6
H     2.9   -0.8    0.5
H     1.4    0.2    0.3
H     4.2    1.1   -0.5
H     4.4    1.4    1.9
H     2.6    1.4    2.1
H     3.2    3.8    2.1
H     2.2    2.6   -1.6
