          13
 frame:         7115
C     0.9   -0.0    0.0
S     2.6   -0.3    0.1
O     3.0   -0.6    1.5
O     3.1   -1.1   -1.0
C     3.3    1.4   -0.2
C     3.0    1.8   -1.6
O     2.2    2.6   -1.9
H     0.6    0.4   -0.9
H     0.6    0.7    0.8
H     0.4   -1.0    0.2
H     4.4    1.3   -0.0
H     2.9    2.1    0.5
H     3.7    1.3   -2.4
