          13
 frame:         6580
O     0.8    0.0   -0.3
C     2.0   -0.0   -0.1
C     2.9    1.3   -0.1
N     4.2    1.0    0.5
N     5.0   -0.0   -0.1
C     4.3   -1.1   -0.3
C     2.9   -1.3    0.2
H     2.4    2.0    0.5
H     2.9    1.6   -1.1
H     4.8    1.9    0.5
H     4.8   -1.9   -0.7
H     2.4   -2.1   -0.3
H     2.8   -1.4    1.3
