          19
 frame:         1600
C    -1.5    0.8    0.1
C    -1.5   -0.8   -0.1
N    -0.3   -1.5    0.3
C     0.9   -1.2   -0.4
C     1.7    0.0   -0.0
N     1.0    1.2    0.3
C    -0.3    1.5   -0.4
H    -2.4    1.2   -0.3
H    -1.6    0.9    1.2
H    -1.6   -0.9   -1.2
H    -2.4   -1.2    0.4
H    -0.2   -1.4    1.3
H     1.6   -2.1   -0.3
H     0.6   -1.2   -1.5
H     2.4   -0.2    0.8
H     2.4    0.2   -0.9
H     0.8    1.2    1.3
H    -0.5    2.6   -0.3
H    -0.1    1.3   -1.5
