          17
 frame:         3435
C     1.1    0.1   -0.0
C     2.6    0.0   -0.0
O     3.1    1.1    0.8
C     4.4    0.6    1.2
O     4.5   -0.8    0.9
C     3.2   -1.2    0.6
C     3.4   -2.4   -0.4
H     0.6   -0.7   -0.7
H     0.7    1.0   -0.4
H     0.7   -0.1    1.0
H     2.9    0.1   -1.1
H     5.2    1.2    0.6
H     4.5    0.8    2.3
H     2.6   -1.5    1.5
H     3.9   -2.1   -1.3
H     2.4   -2.8   -0.7
H     3.9   -3.2    0.1
