          15
 frame:          513
C     1.2   -0.3   -0.1
C     2.7   -0.2    0.0
N     3.1    1.2   -0.2
C     4.6    1.4   -0.0
C     5.0    2.8   -0.0
C     5.3    4.0   -0.0
H     0.9   -1.4    0.0
H     0.9    0.0   -1.1
H     0.7    0.3    0.7
H     3.2   -0.8   -0.8
H     3.1   -0.6    1.0
H     2.6    1.8    0.5
H     5.1    0.9   -0.8
H     5.0    0.9    0.9
H     5.6    5.0   -0.0
