          17
 frame:         3262
C     0.9    0.0    0.1
C     2.4    0.0    0.1
C     3.2    1.1    0.9
C     4.1   -0.0    1.4
O     5.2   -0.0    1.8
C     3.2   -1.1    0.8
C     3.8   -2.3    0.1
H     0.5   -0.9   -0.4
H     0.5    0.9   -0.4
H     0.6   -0.0    1.1
H     2.8    0.0   -1.0
H     2.6    1.5    1.7
H     3.7    1.9    0.4
H     2.6   -1.5    1.7
H     4.4   -2.0   -0.7
H     3.0   -3.0   -0.3
H     4.4   -2.9    0.8
