          19
 frame:         3513
C     2.9   -1.0   -0.4
C     2.3    0.2    0.4
C     3.4    1.3    0.5
O     3.6    2.1   -0.6
C     3.1    2.7    0.6
C     1.7    3.3    0.4
C     4.1    3.6    1.3
H     2.1   -1.8   -0.5
H     3.8   -1.4    0.1
H     3.2   -0.7   -1.4
H     2.0   -0.1    1.4
H     1.4    0.6   -0.1
H     4.3    1.0    1.0
H     1.0    2.6   -0.1
H     1.7    4.3   -0.1
H     1.2    3.5    1.4
H     5.1    3.2    1.3
H     3.7    3.9    2.3
H     4.1    4.6    0.7
