          17
 frame:         3150
C     1.1    0.0    0.1
C     2.6   -0.0   -0.0
C     3.2   -0.9   -1.1
C     4.7   -0.8   -0.8
C     4.7    0.8   -0.8
C     3.2    1.0   -1.0
O     2.9    0.1   -2.1
H     0.7    0.9    0.6
H     0.7   -0.9    0.5
H     0.6    0.0   -1.0
H     3.0   -0.0    1.0
H     2.8   -1.9   -1.3
H     5.1   -1.2    0.1
H     5.3   -1.2   -1.7
H     5.3    1.2   -1.6
H     5.1    1.2    0.2
H     2.8    2.0   -1.1
