          14
 frame:         5264
C     0.8   -0.2   -0.1
C     2.3   -0.6   -0.1
C     2.8   -1.9   -0.3
O     3.1    0.5    0.2
C     4.4    0.4   -0.2
N     5.2    1.0    0.6
O     6.5    1.0   -0.1
H     0.6    0.5   -0.9
H     0.6    0.2    0.9
H     0.2   -1.1   -0.3
H     2.1   -2.7   -0.6
H     3.8   -2.1   -0.2
H     4.6   -0.1   -1.1
H     7.1    1.5    0.6
