          14
 frame:         5642
C     3.0   -1.1    0.5
N     2.5    0.0   -0.3
C     3.1    1.3   -0.1
C     2.5    2.5   -0.1
C     3.7    3.4   -0.0
C     4.8    2.6    0.1
O     4.4    1.3    0.0
H     2.5   -2.0    0.2
H     2.9   -0.9    1.6
H     4.1   -1.2    0.3
H     1.5    0.1   -0.3
H     1.5    2.8   -0.2
H     3.7    4.5    0.0
H     5.8    2.8    0.2
