          12
 frame:          381
C     0.9    0.0    0.1
C     2.4    0.0    0.1
C     3.1    1.1   -0.7
N     3.9    0.7   -1.6
N     3.9   -0.7   -1.6
C     3.1   -1.1   -0.7
H     0.5    0.9    0.6
H     0.5   -0.9    0.6
H     0.5   -0.0   -0.9
H     2.8    0.0    1.1
H     2.9    2.2   -0.5
H     2.9   -2.2   -0.5
