          18
 frame:          492
C     1.2   -0.3    0.9
C     2.6   -0.3    0.4
C     3.3    1.1    0.3
N     3.3    1.8    1.6
C     4.7    1.0   -0.2
N     5.7    0.4    0.8
H     0.8   -1.3    1.0
H     0.6    0.3    0.3
H     1.1    0.1    1.9
H     2.7   -0.8   -0.6
H     3.3   -1.0    1.1
H     2.7    1.6   -0.4
H     3.7    1.2    2.3
H     2.4    2.1    1.9
H     5.0    2.0   -0.6
H     4.7    0.3   -1.1
H     5.9    1.1    1.4
H     6.5    0.1    0.3
