          20
 frame:         5330
C     1.2    0.8    0.2
C     2.6    0.5   -0.3
N     3.5    1.7   -0.2
C     4.9    1.4   -0.6
C     5.8    2.7   -0.5
C     5.3    3.9   -1.3
O     6.2    4.9   -1.1
H     0.6   -0.1    0.1
H     0.8    1.6   -0.3
H     1.2    1.0    1.3
H     2.6    0.2   -1.3
H     3.1   -0.4    0.3
H     3.5    2.0    0.8
H     4.8    1.1   -1.7
H     5.4    0.6   -0.1
H     6.8    2.4   -0.8
H     5.8    3.0    0.6
H     4.2    4.2   -0.9
H     5.2    3.6   -2.3
H     5.9    5.7   -1.6
