          17
 frame:         6318
N     1.1    0.1   -0.7
C     2.5   -0.1   -0.3
C     3.0    1.2    0.2
N     2.2    1.8    1.4
C     4.5    1.1    0.6
C     5.1    1.9    1.7
O     4.8    0.6    1.9
H     0.7   -0.9   -0.8
H     1.0    0.5   -1.6
H     3.1   -0.4   -1.1
H     2.5   -0.8    0.5
H     3.0    2.0   -0.6
H     2.4    1.2    2.2
H     1.2    1.6    1.1
H     5.1    0.7   -0.2
H     4.5    2.7    2.2
H     6.2    2.1    1.6
