          16
 frame:         4562
C    -1.5    0.8    0.2
C    -1.4   -0.7   -0.1
C     0.0   -1.2    0.2
O     1.1   -1.0   -0.8
C     1.1   -0.2    0.4
C     0.9    1.2    0.3
N    -0.4    1.5   -0.4
H    -2.4    1.2   -0.3
H    -1.6    0.9    1.3
H    -1.6   -0.9   -1.2
H    -2.1   -1.3    0.5
H     0.1   -2.2    0.7
H     2.0   -0.5    1.0
H     0.8    1.6    1.4
H     1.7    1.8   -0.2
H    -0.6    2.5   -0.4
