          12
 frame:         6867
O     1.2   -0.5    0.1
N     2.6   -0.4    0.1
C     3.0    0.9    0.0
C     2.1    2.1    0.1
C     2.5    3.3    0.1
C     4.5    0.9   -0.1
O     5.2    1.9   -0.1
H     1.1   -1.4    0.1
H     1.1    1.8    0.2
H     3.6    3.6    0.0
H     1.8    4.1    0.2
H     4.9   -0.1   -0.1
