          16
 frame:         1878
C     1.0    0.0    0.1
C     2.5   -0.0    0.0
N     3.2    1.0    0.8
C     4.2   -0.0    1.3
C     3.2   -1.1    0.8
C     3.7   -2.3    0.1
C     4.2   -3.2   -0.5
H     0.5   -0.8   -0.4
H     0.6    1.0   -0.4
H     0.6    0.0    1.1
H     2.8   -0.0   -1.0
H     2.7    1.4    1.5
H     5.1   -0.0    0.7
H     4.4    0.1    2.4
H     2.6   -1.5    1.7
H     4.6   -4.1   -1.0
