          16
 frame:         5490
C     1.0   -0.3   -0.0
C     2.5   -0.1   -0.1
O     3.1   -0.7   -1.2
C     2.8    1.4    0.0
C     4.3    1.8    0.1
C     4.8    1.4    1.4
N     5.3    1.1    2.4
H     0.5    0.0    0.9
H     0.8   -1.4   -0.1
H     0.5    0.1   -0.9
H     2.9   -0.6    0.8
H     2.6   -0.4   -2.0
H     2.2    1.9    0.9
H     2.4    1.9   -0.9
H     4.5    2.8   -0.1
H     4.8    1.2   -0.7
