          20
 frame:         5927
C     1.3    0.0    0.0
O     2.7    0.4    0.2
C     3.0    1.8    0.0
C     2.5    2.4   -1.3
C     2.4    2.6    1.2
C     4.5    1.8    0.2
N     5.2    1.0   -0.9
H     1.2   -1.0    0.2
H     0.9    0.2   -1.0
H     0.6    0.6    0.8
H     3.0    1.8   -2.1
H     2.9    3.4   -1.4
H     1.4    2.4   -1.4
H     2.7    2.2    2.2
H     1.3    2.7    1.1
H     2.8    3.7    1.2
H     4.8    1.4    1.2
H     4.9    2.8    0.1
H     4.8    0.0   -0.8
H     6.2    1.0   -0.8
