          13
 frame:         1117
O     1.2   -0.1    0.6
C     2.3   -0.1    0.1
C     3.2    1.2    0.0
C     4.4    0.8   -0.8
C     4.5   -0.7   -0.6
N     3.1   -1.1   -0.3
H     3.5    1.5    1.0
H     2.6    2.0   -0.4
H     4.2    1.0   -1.9
H     5.3    1.4   -0.6
H     4.9   -1.2   -1.5
H     5.2   -0.9    0.2
H     2.8   -2.0   -0.2
