          14
 frame:         6807
O     1.9    0.3    1.2
C     2.3    1.1    2.0
O     3.5    1.8    1.9
C     4.3    1.4    0.8
C     5.7    2.2    0.8
N     6.4    0.9    0.5
C     5.2    0.1    0.9
H     1.7    1.5    2.9
H     3.8    1.5   -0.1
H     6.0    2.6    1.8
H     5.8    3.0    0.0
H     6.6    0.8   -0.5
H     4.9   -0.7    0.2
H     5.3   -0.2    1.9
