          14
 frame:         6105
N     1.0    0.1    0.0
C     2.4    0.1    0.0
C     3.0    1.2    0.9
C     4.4    0.6    1.2
O     4.2   -0.8    1.2
C     3.0   -1.1    0.6
O     2.6   -2.3    0.5
H     0.7   -0.9   -0.1
H     0.6    0.6   -0.7
H     2.8    0.2   -1.0
H     2.4    1.3    1.8
H     3.1    2.2    0.4
H     5.2    0.8    0.5
H     4.8    0.9    2.2
