          12
 frame:         1997
C     1.0   -0.0   -0.1
C     2.2    0.0   -0.0
C     3.6    0.1    0.1
N     4.5   -0.7   -0.9
C     4.4    0.8   -1.0
C     5.6    1.5   -0.7
C     6.6    2.2   -0.3
H    -0.1   -0.1   -0.2
H     4.1    0.0    1.1
H     3.9   -1.1   -1.7
H     3.8    1.2   -1.8
H     7.5    2.7   -0.1
