          20
 frame:         5485
C     3.2   -1.2   -0.2
C     2.7   -0.1    0.7
O     3.0   -0.3    2.1
C     3.2    1.4    0.3
C     2.5    2.5    1.1
C     4.7    1.5    0.3
N     5.3    1.3    1.7
H     2.9   -1.0   -1.3
H     2.7   -2.1    0.1
H     4.3   -1.3   -0.2
H     1.6   -0.0    0.7
H     3.9   -0.0    2.2
H     2.9    1.5   -0.8
H     2.7    2.3    2.2
H     1.4    2.4    1.0
H     2.8    3.5    0.9
H     5.0    2.5   -0.1
H     5.1    0.8   -0.3
H     5.1    2.1    2.3
H     6.3    1.2    1.6
