          17
 frame:         2812
N     1.5   -0.3   -0.5
C     2.8    0.0    0.0
C     3.7   -1.1    0.7
C     4.1   -0.4   -0.7
C     5.1    0.7   -0.6
N     4.2    1.9   -0.3
C     3.1    1.5    0.5
H     1.2    0.3   -1.2
H     0.8   -0.4    0.2
H     3.3   -2.1    0.6
H     4.2   -0.8    1.6
H     4.0   -1.0   -1.6
H     5.9    0.5    0.1
H     5.6    0.9   -1.6
H     4.8    2.6    0.2
H     3.3    1.5    1.6
H     2.2    2.1    0.3
