          18
 frame:         5345
C     1.6   -0.2    1.0
C     2.2    0.3   -0.3
N     2.9    1.5   -0.2
C     2.2    2.8   -0.2
C     1.8    3.2   -1.6
C     4.3    1.5   -0.1
O     5.0    0.4   -0.0
H     1.0   -1.1    0.9
H     0.9    0.6    1.5
H     2.4   -0.3    1.8
H     1.4    0.4   -1.1
H     2.9   -0.5   -0.7
H     3.0    3.6    0.1
H     1.4    2.8    0.5
H     2.6    3.3   -2.3
H     1.2    4.2   -1.6
H     1.0    2.5   -2.0
H     4.8    2.5    0.0
