          16
 frame:         5641
C     2.6   -0.6   -1.7
N     2.2    0.2   -0.5
C     3.1    1.3   -0.3
C     2.6    2.8   -0.7
C     3.1    3.3    0.7
C     3.1    1.9    1.2
O     3.0    1.3    2.2
H     1.9   -1.5   -1.8
H     3.6   -0.9   -1.7
H     2.4    0.0   -2.6
H     2.2   -0.4    0.3
H     4.1    1.2   -0.6
H     1.6    2.8   -0.8
H     3.1    3.2   -1.6
H     4.1    3.8    0.7
H     2.4    4.0    1.2
