          16
 frame:          276
C     0.8    0.1   -0.1
C     2.3    0.0   -0.2
C     3.1    0.9    0.4
C     4.6    0.8    0.3
C     5.4    1.7    0.9
C     6.9    1.6    0.8
H     0.4   -0.9    0.2
H     0.3    0.2   -1.1
H     0.5    0.8    0.5
H     2.7   -0.8   -0.9
H     2.7    1.6    1.0
H     5.0    0.0   -0.3
H     5.0    2.4    1.6
H     7.2    0.8    0.2
H     7.4    1.5    1.8
H     7.3    2.6    0.5
