          15
 frame:         3325
C     1.2    0.1    0.5
C     2.4   -0.0   -0.0
C     3.1   -1.3   -0.3
O     4.5   -1.1   -0.3
C     4.7    0.3   -0.5
C     4.1    1.0   -1.7
C     3.4    1.1   -0.3
H     0.7    1.1    0.6
H     0.6   -0.8    0.7
H     2.8   -1.7   -1.4
H     2.9   -2.1    0.4
H     5.7    0.7   -0.1
H     4.5    1.9   -2.0
H     3.6    0.4   -2.5
H     3.3    2.0    0.2
