          15
 frame:          977
C     0.8    0.1   -0.3
C     2.3   -0.0    0.1
C     2.6    0.1    1.5
O     2.0   -1.0    2.3
C     3.2   -0.8   -0.8
N     3.2    0.6   -0.9
H     0.7    0.2   -1.4
H     0.4    1.1    0.1
H     0.2   -0.7    0.1
H     2.4    1.1    1.9
H     3.7   -0.1    1.7
H     1.1   -0.8    2.4
H     2.8   -1.3   -1.7
H     4.0   -1.4   -0.3
H     4.0    1.0   -0.4
