          14
 frame:         2345
C     1.9   -0.6   -1.2
C     2.2    0.0   -0.1
C     1.7   -0.4    1.2
N     1.2   -0.7    2.2
C     3.2    1.1    0.0
C     3.6    2.0   -1.1
C     2.7    2.6   -0.0
H     2.3   -0.3   -2.2
H     1.1   -1.4   -1.2
H     4.0    1.0    0.8
H     3.1    1.8   -2.1
H     4.6    2.3   -1.2
H     3.2    3.3    0.6
H     1.7    2.7   -0.2
