          21
 frame:         1460
C     3.9   -1.6    1.3
C     4.3   -0.9    0.0
C     4.0    0.5    0.1
C     4.9    1.6    0.0
C     6.4    1.4   -0.1
C     4.4    3.0    0.1
C     4.8    3.8    1.4
H     4.0   -2.7    1.2
H     2.8   -1.5    1.5
H     4.5   -1.3    2.2
H     3.8   -1.4   -0.8
H     5.4   -1.1   -0.2
H     3.0    0.8    0.2
H     6.7    0.4   -0.2
H     6.9    1.8    0.8
H     6.8    2.0   -1.0
H     3.3    3.0    0.1
H     4.7    3.5   -0.8
H     4.5    3.3    2.3
H     4.4    4.8    1.4
H     5.9    3.9    1.4
