          20
 frame:         5913
C     1.9    0.9   -2.0
O     3.2    1.3   -1.5
C     3.2    1.1   -0.1
C     4.6    1.4    0.5
C     5.0    2.9    0.3
C     4.1    3.9    1.2
N     4.3    3.6    2.6
H     1.9    1.1   -3.1
H     1.1    1.5   -1.6
H     1.7   -0.1   -1.9
H     3.0   -0.0    0.1
H     2.4    1.6    0.5
H     5.3    0.8   -0.0
H     4.6    1.2    1.6
H     4.8    3.2   -0.8
H     6.0    3.0    0.5
H     3.1    3.8    1.0
H     4.4    4.9    0.9
H     5.3    3.8    2.9
H     3.7    4.2    3.2
