          14
 frame:         5868
C     2.4   -0.9   -0.9
O     2.0    0.3   -0.2
C     3.1    1.2    0.0
C     3.6    2.1   -1.1
C     2.8    2.6    0.1
C     3.4    3.5    1.1
N     3.9    4.1    2.0
H     1.5   -1.5   -1.0
H     3.1   -1.4   -0.2
H     2.9   -0.7   -1.9
H     3.9    0.8    0.7
H     3.0    2.1   -2.0
H     4.6    2.4   -1.1
H     1.7    2.9   -0.1
