          20
 frame:         1947
C     3.0   -1.1   -0.6
C     2.4    0.1    0.0
C     3.4    1.3    0.0
C     3.5    2.3   -1.1
C     2.7    2.3   -2.4
N     2.8    2.6    0.2
C     3.5    3.5    1.1
H     2.3   -2.0   -0.6
H     3.9   -1.5   -0.1
H     3.3   -1.0   -1.6
H     2.0   -0.1    1.1
H     1.5    0.4   -0.5
H     4.3    1.1    0.6
H     4.5    2.7   -1.2
H     1.7    1.9   -2.2
H     3.2    1.7   -3.1
H     2.6    3.3   -2.7
H     3.2    3.4    2.1
H     3.4    4.6    0.8
H     4.7    3.4    1.1
