          15
 frame:         4198
C     4.5   -0.8   -0.4
O     3.3   -0.1    0.1
C     3.4    1.2    0.1
C     4.5    2.0   -0.4
C     4.4    3.5   -0.3
C     5.4    4.0    0.8
O     6.4    4.6    0.6
H     4.2   -1.9   -0.3
H     5.3   -0.6    0.2
H     4.7   -0.6   -1.4
H     2.5    1.7    0.4
H     5.4    1.5   -0.8
H     3.4    3.9   -0.0
H     4.7    4.0   -1.2
H     5.1    3.6    1.8
