          12
 frame:         7071
C     1.0   -0.0   -0.0
N     2.5    0.0    0.0
C     3.2    1.1    0.0
C     4.6    0.7    0.0
Cl    6.0    1.6    0.0
C     4.5   -0.7    0.0
N     3.2   -1.1    0.0
H     0.6    1.0   -0.0
H     0.6   -0.5    0.9
H     0.7   -0.5   -0.9
H     2.9    2.2    0.0
H     5.2   -1.5    0.0
