          14
 frame:         5196
C     1.0   -0.1    0.2
C     2.5   -0.0   -0.1
C     2.8   -0.8   -1.3
N     3.4   -0.3   -2.3
O     3.6   -1.3   -3.4
C     3.0    1.4   -0.1
C     3.3    2.5   -0.2
H     0.8    0.4    1.2
H     0.7   -1.1    0.3
H     0.4    0.4   -0.6
H     3.0   -0.5    0.8
H     2.5   -1.9   -1.3
H     4.0   -0.8   -4.0
H     3.6    3.5   -0.2
