          20
 frame:         2675
C     1.2   -0.3   -0.0
N     2.6   -0.2    0.1
C     3.2   -1.3   -0.6
C     3.1    1.1   -0.4
C     4.6    1.3    0.0
C     5.0    2.7   -0.4
C     5.5    3.6    0.4
H     0.7    0.5    0.6
H     0.8   -1.2    0.4
H     0.8   -0.2   -1.1
H     2.8   -2.3   -0.2
H     4.3   -1.4   -0.5
H     3.0   -1.3   -1.7
H     2.5    1.9    0.1
H     3.0    1.2   -1.5
H     5.2    0.6   -0.5
H     4.7    1.2    1.1
H     5.0    2.9   -1.5
H     5.6    3.5    1.5
H     5.8    4.6    0.1
