          19
 frame:         2721
C     0.9    1.1   -1.2
N     2.3    1.0   -1.2
C     2.9    1.6    0.0
C     4.4    1.5    0.0
C     5.3    2.5    0.1
C     6.8    2.4    0.1
N     7.3    3.2   -0.9
H     0.5    0.7   -2.1
H     0.5    2.1   -1.1
H     0.5    0.5   -0.4
H     2.7    1.5   -2.0
H     2.5    1.1    0.9
H     2.6    2.7    0.2
H     4.8    0.5   -0.1
H     4.9    3.5    0.1
H     7.0    1.3    0.1
H     7.1    2.8    1.1
H     7.1    2.9   -1.9
H     8.4    3.2   -0.9
