          15
 frame:         5752
C     0.9    0.4    0.2
N     2.4    0.7    0.1
C     3.2   -0.5    0.1
C     3.5   -1.2    1.4
O     3.6   -2.4    1.6
C     2.9    1.9    0.1
N     4.1    2.3    0.1
H     0.4    1.4    0.3
H     0.7   -0.2    1.1
H     0.6   -0.1   -0.7
H     4.2   -0.2   -0.4
H     2.8   -1.3   -0.6
H     3.5   -0.4    2.3
H     2.1    2.7    0.2
H     4.8    1.6    0.1
