          15
 frame:         6378
N     1.2    1.4   -0.5
C     2.5    1.7    0.1
N     2.8    2.4    1.1
O     3.4    1.1   -0.7
C     4.7    1.2   -0.2
C     5.8    0.7   -1.2
C     5.6    2.2   -0.8
H     1.2    1.1   -1.4
H     0.5    2.1   -0.3
H     1.9    2.7    1.6
H     4.8    1.0    0.8
H     5.4    0.4   -2.2
H     6.6    0.2   -0.8
H     6.4    2.7   -0.2
H     5.2    2.8   -1.6
