          14
 frame:         5805
C     3.0   -1.3   -0.0
N     2.4    0.0    0.0
C     3.1    1.2    0.0
O     2.5    2.3   -0.0
C     4.5    1.1    0.0
C     5.7    1.2    0.0
C     7.2    1.2    0.0
H     2.2   -2.0    0.0
H     3.7   -1.4    0.9
H     3.6   -1.4   -0.9
H     1.4    0.1   -0.0
H     7.6    2.3   -0.0
H     7.6    0.7   -0.9
H     7.6    0.7    0.9
