          15
 frame:         3717
C     0.7   -0.2    0.1
C     2.2    0.1   -0.1
C     2.8   -0.6   -1.4
C     3.9   -1.4   -1.4
C     2.6    1.6   -0.0
O     3.7    1.9   -0.6
O     1.9    2.4    0.6
H     0.4    0.4    1.0
H     0.5   -1.2    0.2
H     0.2    0.2   -0.8
H     2.8   -0.4    0.8
H     2.2   -0.3   -2.3
H     4.4   -1.6   -0.5
H     4.2   -1.8   -2.4
H     4.1    1.2   -1.1
