          17
 frame:         1652
C     1.1    0.1    0.1
C     2.6   -0.0   -0.1
C     3.2   -0.8   -1.2
C     3.3    0.7   -1.2
C     4.6    1.4   -0.9
N     5.7    0.8   -0.6
N     6.8    1.6   -0.2
H     0.8    1.0    0.6
H     0.7   -0.8    0.6
H     0.6    0.1   -0.9
H     3.1   -0.0    0.9
H     2.6   -1.2   -1.9
H     4.2   -1.3   -0.9
H     2.7    1.3   -1.9
H     4.6    2.6   -0.9
H     7.6    1.1   -0.4
H     6.8    2.5   -0.6
