          13
 frame:         3787
C     3.2   -2.4    1.3
C     3.6   -1.1    1.2
C     3.0   -0.2    0.2
C     3.4    1.1    0.0
O     2.8    1.9   -0.9
C     3.3    3.2   -1.0
O     4.1    3.7   -0.3
H     3.7   -3.0    2.1
H     2.5   -2.8    0.7
H     4.3   -0.7    1.8
H     2.3   -0.6   -0.5
H     4.2    1.6    0.7
H     2.7    3.7   -1.8
