          13
 frame:         3371
C     1.0    0.0    0.1
C     2.4   -0.0    0.0
C     3.3    1.2    0.1
O     4.5    0.7   -0.5
C     4.6   -0.6   -0.6
O     5.5   -1.2   -1.0
C     3.2   -1.2   -0.1
H     0.4   -0.9    0.0
H     0.5    1.0    0.1
H     3.4    1.5    1.1
H     2.9    2.0   -0.5
H     2.9   -2.0   -0.8
H     3.4   -1.8    0.8
