          15
 frame:          412
C     0.7    0.2    0.1
C     2.2    0.2    0.5
C     3.2    0.4   -0.3
C     4.6    0.5    0.1
C     5.7   -0.1   -0.8
N     5.5    1.4   -0.8
H     0.3   -0.8    0.4
H     0.6    0.3   -1.0
H     0.1    1.0    0.6
H     2.4    0.1    1.6
H     3.0    0.6   -1.4
H     4.8    0.5    1.1
H     5.4   -0.6   -1.8
H     6.6   -0.5   -0.3
H     6.2    1.8   -0.2
