          15
 frame:         3590
C     2.1   -1.2    0.6
C     3.1   -0.4    0.7
C     3.2    1.1    0.4
C     3.5    2.0    1.6
C     2.7    2.9    2.1
C     4.2    1.3   -0.7
O     5.4    1.1   -0.6
H     2.1   -2.2    0.9
H     1.1   -0.8    0.3
H     4.1   -0.8    1.1
H     2.2    1.4   -0.0
H     4.5    1.8    2.0
H     1.7    3.1    1.6
H     3.0    3.5    2.9
H     3.8    1.7   -1.7
