          16
 frame:         1666
C     1.5    0.1    1.0
C     2.3   -0.1   -0.0
C     2.9   -1.4   -0.6
C     4.2   -0.9   -1.2
C     5.1   -0.1   -0.4
N     4.2    0.5   -1.4
C     3.0    1.1   -0.8
H     1.2    1.1    1.4
H     1.1   -0.8    1.6
H     2.2   -1.8   -1.4
H     3.0   -2.1    0.2
H     4.6   -1.6   -2.0
H     4.8    0.1    0.7
H     6.2   -0.0   -0.6
H     3.1    2.0   -0.3
H     2.3    1.3   -1.7
