          12
 frame:         6207
N     0.9    0.0   -0.1
C     2.1    0.0   -0.0
C     3.6   -0.0    0.0
C     4.2   -1.3    0.7
O     4.7   -0.8    2.0
C     4.7    0.5    2.0
C     4.2    1.1    0.9
H     3.9    0.1   -1.0
H     5.0   -1.7    0.1
H     3.5   -2.1    0.9
H     5.2    1.0    2.8
H     4.0    2.2    0.7
