          12
 frame:         6491
O     1.1   -0.0    0.4
C     2.3   -0.0    0.2
C     3.3    1.1   -0.1
C     4.3   -0.0   -0.6
C     3.4   -1.1   -0.1
C     3.0   -2.2   -1.0
N     2.7   -3.1   -1.7
H     3.6    1.6    0.9
H     3.0    1.9   -0.8
H     4.4   -0.0   -1.7
H     5.3   -0.0   -0.2
H     3.7   -1.5    0.9
