          19
 frame:         3877
C     1.0   -0.5    0.1
C     2.5   -0.3   -0.2
C     2.9   -1.1   -1.5
O     2.9    1.1   -0.4
C     3.0    1.9    0.7
C     3.4    3.3    0.2
C     3.0    1.5    2.0
H     0.7    0.1    0.9
H     0.8   -1.5    0.3
H     0.4   -0.1   -0.8
H     3.1   -0.7    0.6
H     2.4   -0.7   -2.4
H     2.7   -2.1   -1.4
H     4.0   -0.9   -1.7
H     4.2    3.3   -0.4
H     3.5    3.9    1.1
H     2.5    3.7   -0.4
H     2.7    0.5    2.3
H     3.1    2.2    2.7
