          18
 frame:         6209
N     0.8    0.4    0.9
C     1.7    0.3   -0.2
C     3.0    1.1   -0.0
C     3.8    0.8    1.2
O     5.0    1.6    1.4
C     3.7    1.6   -1.3
C     2.9    2.6   -0.5
H     0.0   -0.2    0.8
H     0.5    1.4    0.9
H     1.3    0.6   -1.2
H     2.0   -0.8   -0.3
H     4.0   -0.3    1.2
H     3.2    0.9    2.1
H     5.6    1.3    0.8
H     3.3    1.3   -2.2
H     4.8    1.7   -1.3
H     3.5    3.3    0.1
H     2.0    3.0   -0.9
