          15
 frame:         4010
C     2.4   -0.4    1.7
C     2.7   -0.5    0.2
O     3.8    0.4   -0.0
C     4.3    0.4   -1.3
C     3.8   -0.2   -2.4
C     5.4    1.3   -1.4
C     6.4    2.0   -1.5
H     1.5   -1.0    1.9
H     2.1    0.6    2.0
H     3.2   -0.8    2.3
H     1.9   -0.1   -0.4
H     2.9   -1.5   -0.1
H     2.9   -0.9   -2.3
H     4.2   -0.1   -3.4
H     7.2    2.6   -1.6
