          15
 frame:         4518
O     1.1    1.5   -2.3
C     1.9    2.4   -1.9
C     3.2    2.0   -1.2
O     3.9    3.2   -0.8
C     5.1    3.0   -0.2
C     6.3    2.6   -1.1
C     6.2    4.0   -0.4
H     1.8    3.5   -2.1
H     3.8    1.3   -1.8
H     2.9    1.4   -0.3
H     5.0    2.5    0.8
H     6.2    2.6   -2.1
H     7.1    1.9   -0.7
H     6.8    4.2    0.5
H     5.9    4.8   -1.0
