          17
 frame:         3719
C     1.0   -0.0   -0.1
C     2.6   -0.1   -0.0
C     2.9   -0.8    1.3
C     3.1   -0.9   -1.2
C     3.1    1.4    0.0
O     2.9    2.1   -1.1
O     3.8    1.8    0.9
H     0.7    0.5   -1.1
H     0.6    0.6    0.7
H     0.6   -1.0   -0.1
H     2.5   -0.2    2.2
H     4.0   -0.8    1.4
H     2.5   -1.8    1.3
H     2.9   -0.4   -2.2
H     2.8   -1.9   -1.2
H     4.2   -0.9   -1.1
H     2.4    1.6   -1.7
