          18
 frame:         4890
C     1.0    0.1    0.1
C     2.5   -0.1   -0.0
O     3.3    1.0    0.6
C     4.1   -0.0    1.3
C     3.2   -1.2    0.8
C     3.8   -2.3    0.1
N     4.5   -3.2    1.0
H     0.4   -0.7   -0.3
H     0.7    1.1   -0.4
H     0.7    0.2    1.2
H     2.8   -0.1   -1.1
H     5.1   -0.1    0.9
H     4.1    0.2    2.4
H     2.5   -1.6    1.6
H     4.5   -1.9   -0.7
H     3.0   -2.9   -0.4
H     5.3   -2.8    1.4
H     4.9   -4.0    0.5
