          13
 frame:         3748
C     0.9    0.1   -0.1
C     2.4   -0.0   -0.0
C     3.1   -1.2    0.1
C     2.5   -2.5    0.2
O     3.1   -3.6    0.3
C     3.2    1.2   -0.1
C     3.8    2.2   -0.2
H     0.6    0.8    0.8
H     0.4   -0.8   -0.0
H     0.7    0.7   -1.0
H     4.2   -1.2    0.1
H     1.4   -2.6    0.2
H     4.3    3.2   -0.2
