          16
 frame:         2257
C     0.9   -0.0    0.3
C     2.4   -0.1   -0.0
C     3.0   -1.2   -0.4
C     3.2    1.2    0.2
N     2.9    2.3   -0.8
C     3.1    1.7    1.5
C     3.0    2.1    2.7
H     0.5    0.8   -0.3
H     0.8    0.3    1.3
H     0.5   -1.0    0.1
H     2.5   -2.1   -0.6
H     4.1   -1.3   -0.6
H     4.3    0.9    0.0
H     2.0    2.6   -0.6
H     2.9    1.8   -1.7
H     3.0    2.5    3.7
