          17
 frame:         3927
C     2.3   -1.1    1.0
C     2.5   -0.1   -0.2
C     3.0    1.2    0.3
O     2.3    1.9    1.0
C     4.5    1.6   -0.0
C     4.8    3.0    0.5
O     4.8    3.1    1.9
H     1.9   -2.1    0.6
H     1.6   -0.7    1.7
H     3.3   -1.3    1.5
H     1.6    0.0   -0.7
H     3.2   -0.6   -0.9
H     4.6    1.6   -1.1
H     5.1    0.8    0.4
H     4.2    3.8   -0.0
H     5.9    3.2    0.2
H     3.8    3.0    2.1
