          18
 frame:         5328
C     0.9    0.1    0.2
C     2.3   -0.5    0.2
N     3.3    0.6   -0.1
C     4.7    0.1   -0.0
C     5.7    1.2   -0.4
C     6.3    2.0    0.6
O     7.0    1.0   -0.1
H     0.2   -0.7    0.4
H     0.7    0.6   -0.7
H     0.8    0.9    1.0
H     2.4   -1.2   -0.6
H     2.5   -1.0    1.2
H     3.2    1.4    0.6
H     4.8   -0.7   -0.7
H     5.0   -0.3    1.0
H     5.5    1.6   -1.4
H     6.2    1.8    1.7
H     6.7    3.0    0.4
