          19
 frame:         1815
C     1.0    0.1   -0.1
C     2.5    0.1    0.0
C     3.4   -0.7   -1.0
N     2.9   -1.4   -2.2
C     3.4    0.8   -1.0
C     2.8    1.7   -2.1
N     4.7    1.4   -0.5
H     0.6    1.0    0.2
H     0.6   -0.7    0.6
H     0.6   -0.2   -1.1
H     2.9   -0.0    1.0
H     4.3   -1.2   -0.6
H     2.4   -0.8   -2.8
H     2.2   -2.1   -1.9
H     1.8    1.3   -2.4
H     3.5    1.7   -2.9
H     2.6    2.7   -1.7
H     5.2    0.8    0.1
H     4.5    2.2    0.1
