          13
 frame:         4357
O     1.1    0.1   -0.4
C     2.4   -0.0   -0.0
C     2.8   -1.3    0.8
C     3.6   -0.9    2.0
O     4.2   -1.6    2.8
C     3.4    0.6    2.1
C     2.7    1.1    1.0
H     0.9   -0.5   -1.2
H     3.1    0.1   -0.9
H     3.4   -2.0    0.2
H     1.9   -1.9    1.1
H     3.8    1.2    2.9
H     2.5    2.1    0.8
