          18
 frame:         2133
C     0.8    0.3    0.0
C     2.3    0.0    0.0
C     2.7   -0.8    1.3
C     2.7   -0.8   -1.2
C     3.0    1.4    0.0
C     4.5    1.4    0.0
N     5.6    1.3    0.0
H     0.5    0.8   -0.9
H     0.5    0.8    0.9
H     0.3   -0.7    0.0
H     2.4   -0.2    2.2
H     3.8   -0.9    1.3
H     2.2   -1.7    1.3
H     2.5   -0.2   -2.2
H     2.2   -1.8   -1.2
H     3.8   -0.9   -1.3
H     2.7    2.0    0.9
H     2.7    2.0   -0.9
