          20
 frame:         2107
C     0.9    0.9   -1.0
C     2.4    0.8   -1.1
C     3.2    1.2   -0.1
C     4.7    1.2   -0.0
C     5.1    0.3    1.1
C     5.3    0.6   -1.3
N     5.2    2.5    0.3
H     0.4   -0.1   -1.1
H     0.5    1.6   -1.9
H     0.5    1.4   -0.1
H     2.8    0.4   -2.0
H     2.8    1.7    0.8
H     4.7    0.6    2.1
H     6.2    0.2    1.2
H     4.8   -0.8    1.0
H     5.0    1.2   -2.2
H     5.0   -0.4   -1.6
H     6.4    0.6   -1.3
H     4.9    3.1   -0.5
H     6.2    2.5    0.3
