          15
 frame:         1074
C     2.1   -0.5   -1.3
O     2.2    0.1   -0.0
C     3.0    1.2   -0.1
C     2.4    2.6   -0.5
N     3.0    3.3    0.7
C     3.2    1.9    1.3
H     1.5   -1.4   -1.2
H     3.0   -0.8   -1.8
H     1.5    0.2   -2.0
H     4.0    1.0   -0.6
H     1.3    2.6   -0.5
H     2.7    3.0   -1.5
H     3.9    3.7    0.5
H     4.2    1.8    1.8
H     2.4    1.6    2.0
