          13
 frame:         5367
C     3.7   -2.0   -0.1
C     4.5   -1.0   -0.1
N     4.1    0.3   -0.2
C     5.0    1.3   -0.1
N     4.6    2.6   -0.2
C     5.5    3.6   -0.2
O     5.2    4.8   -0.3
H     4.0   -3.0   -0.0
H     2.6   -1.9   -0.3
H     5.6   -1.2    0.1
H     6.0    1.1    0.1
H     3.6    2.8   -0.4
H     6.5    3.3    0.0
