          16
 frame:         4619
C     1.4    0.2   -0.3
C     2.8   -0.1    0.1
C     3.2   -1.5    0.6
O     4.6   -1.6    0.6
C     5.1   -0.7   -0.5
C     4.1    0.4   -0.5
N     3.6    1.0    0.7
H     1.4    1.2   -0.7
H     0.7    0.1    0.5
H     1.1   -0.5   -1.1
H     2.8   -2.2   -0.1
H     2.8   -1.7    1.6
H     6.1   -0.4   -0.2
H     5.2   -1.3   -1.4
H     4.1    1.1   -1.4
H     4.2    0.6    1.5
