          15
 frame:         1130
O     2.0   -1.3   -0.3
C     2.1    0.1   -0.5
C     2.9    0.7    0.7
C     4.4    0.3    0.6
C     5.4    1.1   -0.2
N     5.3    1.2    1.3
H     1.5   -1.7   -1.0
H     1.0    0.6   -0.4
H     2.5    0.4   -1.4
H     2.5    0.4    1.6
H     2.9    1.8    0.6
H     4.5   -0.8    0.7
H     5.0    2.0   -0.8
H     6.2    0.5   -0.7
H     6.1    0.7    1.7
