          17
 frame:         2826
N     0.9    0.0   -0.7
C     2.2    0.0   -0.1
C     3.3   -0.8   -0.9
C     3.3    0.7   -1.0
C     2.4    0.1    1.4
C     1.4    0.8    2.2
N     1.3   -0.7    2.1
H     0.5    0.9   -0.6
H     0.3   -0.6   -0.2
H     2.9   -1.3   -1.8
H     4.0   -1.3   -0.3
H     4.1    1.2   -0.4
H     3.0    1.2   -1.9
H     3.4    0.0    1.7
H     0.6    1.4    1.8
H     1.8    1.3    3.2
H     1.8   -1.1    3.0
