          20
 frame:         2382
C    -0.1   -0.3    0.9
C     1.4   -0.5    0.8
C     2.2    0.8    0.6
N     3.6    0.6    0.7
C     4.4    1.8    0.4
C     5.9    1.4    0.4
C     6.8    1.7   -0.6
H    -0.6   -1.2    1.0
H    -0.5    0.2   -0.1
H    -0.4    0.4    1.7
H     1.7   -1.2    0.0
H     1.7   -1.0    1.8
H     2.0    1.5    1.4
H     1.9    1.3   -0.3
H     3.9   -0.1   -0.1
H     4.2    2.5    1.2
H     4.2    2.2   -0.6
H     6.3    1.0    1.3
H     6.4    2.2   -1.5
H     7.8    1.5   -0.5
