          14
 frame:          461
C     1.1    0.0    0.0
C     2.6    0.0    0.1
C     3.2   -1.3    0.1
C     4.4   -1.6    0.6
N     3.1    1.2    0.1
N     4.5    1.3    0.2
H     0.7    1.1    0.0
H     0.6   -0.5    0.9
H     0.7   -0.5   -0.9
H     2.7   -2.0   -0.5
H     5.0   -0.9    1.2
H     4.8   -2.6    0.5
H     4.8    2.2   -0.2
H     5.0    0.5   -0.2
