          13
 frame:         3767
C     0.9   -0.0    0.0
C     2.4    0.0   -0.0
C     3.6    0.0   -0.0
C     5.1    0.0   -0.1
O     5.6   -0.7   -1.2
C     5.6    1.4    0.0
C     6.0    2.5    0.1
H     0.5    1.0   -0.1
H     0.6   -0.5    0.9
H     0.6   -0.6   -0.8
H     5.5   -0.5    0.8
H     5.2   -0.2   -2.0
H     6.4    3.5    0.1
