          16
 frame:          685
C     0.9   -0.0    0.1
C     2.4   -0.0   -0.0
C     2.8    0.0   -1.5
C     3.1    1.0    0.8
O     4.0   -0.0    1.5
C     3.2   -1.1    0.8
H     0.6   -0.0    1.2
H     0.4   -0.9   -0.4
H     0.4    0.9   -0.3
H     3.9    0.0   -1.6
H     2.4    0.9   -2.0
H     2.4   -0.9   -2.0
H     2.5    1.5    1.6
H     3.8    1.8    0.3
H     3.8   -1.8    0.3
H     2.5   -1.6    1.6
