          13
 frame:         6169
N     1.2    0.2    0.3
C     2.4   -0.1   -0.2
O     2.6   -1.2   -1.0
C     4.0   -1.3   -1.3
C     4.6    0.0   -0.9
C     4.0    1.2   -1.5
N     3.5    0.8   -0.1
H     1.2    1.1    0.8
H     4.4   -2.1   -0.6
H     4.1   -1.6   -2.3
H     5.6    0.1   -0.5
H     4.5    2.2   -1.5
H     3.3    1.1   -2.3
