          14
 frame:         6500
O     1.0    0.1   -0.0
C     2.4   -0.0   -0.0
C     3.0    1.3    0.4
C     3.7    1.2    1.6
C     3.7   -0.2    2.1
N     4.4   -1.2    1.2
C     2.9   -1.0    1.1
H     0.6   -0.7   -0.5
H     2.8   -0.3   -1.0
H     2.9    2.2   -0.2
H     4.2    2.0    2.1
H     3.7   -0.5    3.1
H     4.9   -0.7    0.4
H     2.3   -1.9    1.3
