          12
 frame:         6121
N     1.0    0.1    0.2
C     2.4   -0.0    0.1
C     3.2   -1.1   -0.1
C     4.6   -0.7   -0.1
O     5.6   -1.3   -0.2
O     4.6    0.7    0.0
C     3.2    1.2    0.1
H     0.4   -0.8   -0.1
H     0.6    0.9   -0.0
H     2.9   -2.2   -0.1
H     3.0    1.9   -0.7
H     3.1    1.7    1.1
