          15
 frame:         1767
C     1.0   -0.1    0.0
C     2.5    0.1    0.0
C     3.1    1.2   -0.1
C     4.6    1.2   -0.1
N     5.2   -0.0   -0.5
C     4.5   -1.1   -0.3
N     3.2   -1.1    0.2
H     0.5    0.8   -0.1
H     0.7   -0.6    1.0
H     0.7   -0.8   -0.8
H     2.6    2.1   -0.4
H     5.0    1.5    0.9
H     5.0    2.0   -0.8
H     5.0   -2.1   -0.5
H     2.8   -2.0    0.1
