          16
 frame:         4817
C     1.0   -0.2    0.3
C     2.4    0.1   -0.0
N     3.2    0.9    0.9
C     2.5    1.8    1.8
C     4.0   -0.2    1.5
C     3.4   -1.1    0.4
O     3.6   -2.2   -0.0
H     0.6   -1.0   -0.4
H     0.3    0.7    0.2
H     0.8   -0.6    1.3
H     2.5    0.4   -1.1
H     2.0    2.6    1.3
H     3.3    2.4    2.4
H     1.9    1.3    2.5
H     5.0   -0.1    1.6
H     3.6   -0.6    2.5
