          13
 frame:         5833
C     2.1    0.6   -0.1
N     3.3    0.6   -0.6
N     4.3    1.1    0.2
C     5.6    1.1   -0.2
C     6.7    1.5    0.5
C     8.0    1.4   -0.0
O     9.0    1.8    0.6
H     1.3    0.2   -0.8
H     1.9    1.0    0.8
H     4.1    1.4    1.1
H     5.8    0.6   -1.2
H     6.5    1.9    1.5
H     8.1    1.0   -1.0
