          15
 frame:         3196
C     0.9    0.1   -0.0
C     2.4    0.1   -0.0
C     3.3    1.1    0.1
C     4.7    0.6    0.0
C     4.7   -0.7   -0.1
C     3.3   -1.2   -0.1
O     2.9   -2.1   -1.1
H     0.5    1.1   -0.1
H     0.5   -0.4    0.9
H     0.6   -0.5   -0.9
H     3.0    2.2    0.2
H     5.5    1.3    0.1
H     5.5   -1.4   -0.1
H     3.1   -1.8    0.9
H     3.1   -1.7   -1.9
