          21
 frame:         2384
C     2.1   -1.3    0.9
C     3.1   -0.5    0.2
C     3.0    1.0    0.5
N     4.1    1.8   -0.1
C     3.9    3.3    0.1
C     5.1    4.0   -0.5
N     5.2    3.8   -1.9
H     2.2   -2.4    0.6
H     1.1   -1.0    0.6
H     2.1   -1.2    1.9
H     3.1   -0.6   -0.9
H     4.2   -0.8    0.5
H     3.1    1.2    1.6
H     2.0    1.4    0.2
H     4.0    1.7   -1.1
H     3.9    3.4    1.2
H     3.0    3.7   -0.3
H     6.0    3.8    0.1
H     4.9    5.1   -0.3
H     5.8    2.9   -2.1
H     5.8    4.5   -2.4
