          18
 frame:         4809
C     0.9    0.0   -0.1
C     2.4    0.0    0.0
N     2.8   -0.1    1.4
C     3.2   -0.7   -1.1
C     3.2    0.9   -0.9
C     4.5    1.6   -0.5
O     5.4    1.8   -1.6
H     0.6    0.1   -1.2
H     0.5    0.9    0.4
H     0.5   -0.9    0.3
H     3.8   -0.1    1.5
H     2.5   -0.9    1.8
H     2.7   -1.1   -1.9
H     4.2   -1.2   -0.7
H     2.6    1.4   -1.7
H     5.0    1.1    0.3
H     4.2    2.6   -0.1
H     5.4    0.9   -2.1
