          17
 frame:         3334
C     0.9   -0.0    0.4
C     2.4   -0.1   -0.1
C     3.3    1.0    0.6
O     4.5    0.4    1.1
C     4.0   -0.9    1.6
C     3.1   -1.4    0.4
O     3.9   -1.9   -0.7
H     0.3   -0.8   -0.1
H     0.5    1.0    0.1
H     0.8   -0.1    1.5
H     2.5   -0.0   -1.2
H     2.7    1.5    1.4
H     3.6    1.8   -0.1
H     4.9   -1.5    1.7
H     3.4   -0.8    2.5
H     2.4   -2.2    0.7
H     4.7   -1.3   -0.8
