          17
 frame:         5564
C     0.9    1.6    0.6
C     2.3    1.3    0.1
O     3.1    2.4    0.5
N     4.4    2.1    0.0
C     5.2    3.0    0.4
C     6.7    3.0   -0.0
N     7.0    4.2   -0.8
H     0.2    0.8    0.3
H     0.5    2.5    0.2
H     0.9    1.6    1.7
H     2.3    1.3   -1.1
H     2.7    0.3    0.4
H     4.9    3.9    1.0
H     6.8    2.0   -0.6
H     7.3    2.9    0.9
H     6.6    4.2   -1.7
H     8.1    4.2   -0.9
