          12
 frame:         4589
C     2.5    0.0    0.8
N     1.6    0.3   -0.4
C     2.4    1.6   -0.6
C     2.6    2.8   -1.1
O     3.6    3.4   -0.3
C     3.9    2.5    0.7
C     3.2    1.4    0.6
H     3.2   -0.8    0.6
H     2.0   -0.1    1.8
H     1.6   -0.3   -1.1
H     2.3    3.3   -2.0
H     4.7    2.9    1.4
