          15
 frame:         4525
O     0.5    1.3   -0.2
C     1.8    1.4   -0.6
C     2.8    1.8    0.5
O     2.3    2.0    1.6
C     4.2    2.0    0.1
C     4.6    3.5    0.1
C     5.1    4.2   -0.9
H     0.6    1.6    0.8
H     1.9    2.1   -1.5
H     2.2    0.4   -1.0
H     4.5    1.6   -0.8
H     4.8    1.5    0.9
H     4.4    4.0    1.1
H     5.3    3.7   -1.9
H     5.3    5.2   -0.8
