          12
 frame:         2893
N     1.0   -0.1   -0.0
C     2.1   -0.0   -0.0
C     3.5    0.0    0.0
C     4.4    1.1   -0.0
C     5.8    0.7   -0.0
C     5.8   -0.7    0.0
C     4.4   -1.2    0.0
H     4.0    2.1   -0.0
H     6.6    1.4   -0.0
H     6.7   -1.3    0.0
H     4.2   -1.9   -0.9
H     4.2   -1.9    0.9
