          15
 frame:         3597
C     1.1   -1.2    0.6
C     2.5   -0.6    0.3
C     2.8    0.7    0.1
C     1.9    1.9    0.2
C     0.8    2.0    1.0
C     4.2    1.0   -0.4
O     5.1    0.2   -0.4
H     1.0   -2.2    0.1
H     0.3   -0.5    0.4
H     1.1   -1.4    1.7
H     3.3   -1.3    0.1
H     2.1    2.7   -0.5
H     0.6    1.3    1.8
H     0.2    3.0    1.0
H     4.3    2.1   -0.7
