          14
 frame:         5590
C     1.1    0.2   -0.1
N     2.6    0.2   -0.1
C     3.3   -0.7   -1.0
C     3.3    0.8   -1.2
C     4.5    1.7   -0.9
O     4.8    1.7    0.4
O     5.1    2.3   -1.8
H     0.7    1.1    0.2
H     0.8   -0.6    0.6
H     0.8   -0.1   -1.1
H     2.8   -1.3   -1.7
H     4.3   -1.1   -0.6
H     2.7    1.1   -2.1
H     4.0    1.2    0.8
