          20
 frame:         2465
C     3.4   -1.7    0.4
C     2.8   -0.4   -0.1
N     1.3   -0.3    0.1
C     3.4    0.8    0.7
C     4.8    1.0    0.5
C     5.3    1.7   -0.8
C     5.4    2.4    0.5
H     4.5   -1.8    0.2
H     2.9   -2.6   -0.1
H     3.2   -1.9    1.5
H     3.0   -0.3   -1.1
H     1.0   -0.5    1.1
H     0.9   -1.1   -0.4
H     3.2    0.7    1.8
H     2.8    1.7    0.3
H     5.5    0.2    0.8
H     4.6    2.0   -1.5
H     6.3    1.3   -1.3
H     6.4    2.5    1.0
H     4.7    3.2    0.7
