          18
 frame:         5691
C     2.9   -0.5    1.4
N     2.7    0.2    0.2
C     3.0    1.6    0.1
C     2.5    2.2   -1.2
C     2.6    2.5    1.3
C     4.6    1.6   -0.0
O     5.3    2.4    0.6
H     2.7   -1.6    1.3
H     2.4   -0.1    2.3
H     4.0   -0.5    1.6
H     1.7    0.1   -0.1
H     2.9    1.6   -2.0
H     2.8    3.2   -1.3
H     1.4    2.1   -1.2
H     3.0    2.1    2.3
H     1.5    2.5    1.4
H     3.0    3.5    1.2
H     5.0    0.8   -0.7
