          14
 frame:         6282
N     3.3   -0.8    0.6
C     2.5    0.0   -0.2
C     2.9    1.5   -0.1
C     2.1    2.5    0.1
C     4.4    1.8   -0.4
O     5.2    0.8   -0.2
O     4.8    2.9   -0.7
H     3.1   -1.8    0.4
H     3.1   -0.7    1.6
H     1.4   -0.0    0.1
H     2.6   -0.3   -1.2
H     1.0    2.3    0.3
H     2.4    3.5    0.1
H     4.7   -0.0    0.1
