          14
 frame:         2774
C     1.0    0.0    0.0
N     2.5   -0.1    0.0
C     3.0   -1.5    0.1
N     3.2    0.9   -0.3
C     4.5    0.8   -0.5
C     5.2    2.0   -0.8
N     5.8    3.0   -1.1
H     0.8    1.1    0.1
H     0.6   -0.5    0.9
H     0.6   -0.4   -0.9
H     2.3   -2.2    0.3
H     3.9   -1.5    0.8
H     3.4   -1.8   -0.9
H     5.0   -0.1   -0.5
