          18
 frame:         1705
C     0.9   -0.0    0.1
C     2.5   -0.0   -0.1
C     3.0   -1.3   -0.8
C     4.1   -0.9   -1.5
C     4.3    0.6   -1.4
N     3.0    1.1   -0.8
C     2.2    1.6   -1.9
H     0.6    0.9    0.5
H     0.7   -0.8    0.8
H     0.4   -0.1   -0.9
H     2.9    0.0    0.9
H     2.7   -2.3   -0.6
H     4.7   -1.6   -2.1
H     5.2    0.8   -0.7
H     4.5    1.1   -2.4
H     2.7    2.4   -2.4
H     1.2    2.0   -1.5
H     1.9    0.8   -2.7
