          16
 frame:         5745
C     0.9    0.1   -0.0
N     2.4    0.0   -0.4
C     3.1    1.2   -0.0
C     4.6    0.9   -0.2
O     5.3    1.8   -0.7
C     5.2   -0.4    0.2
C     6.5   -0.7    0.1
H     0.4   -0.7   -0.4
H     0.5    1.1   -0.4
H     0.8    0.2    1.1
H     2.4   -0.2   -1.4
H     3.0    1.4    1.1
H     2.9    2.1   -0.6
H     4.5   -1.1    0.7
H     7.2    0.0   -0.4
H     6.9   -1.6    0.5
