          20
 frame:         5143
C    -0.1   -0.8    1.0
C     1.2   -0.9    0.2
C     1.5   -2.4   -0.1
N     1.2   -0.1   -1.0
C     1.4    1.4   -0.8
C     1.0    2.1   -2.1
O    -0.3    1.7   -2.6
H    -0.3    0.3    1.3
H    -0.0   -1.4    1.9
H    -0.9   -1.1    0.4
H     2.1   -0.6    0.9
H     0.7   -2.7   -0.8
H     1.5   -3.0    0.8
H     2.5   -2.5   -0.7
H     2.0   -0.4   -1.6
H     2.4    1.7   -0.5
H     0.7    1.7   -0.0
H     1.8    1.8   -2.9
H     1.0    3.2   -2.0
H    -0.3    0.7   -2.3
