          16
 frame:          588
N     0.9    0.0    0.0
C     2.4    0.1    0.0
C     3.1    1.1    0.9
C     4.2    0.0    1.2
C     3.2   -1.1    0.8
N     3.7   -2.3    0.2
H     0.6   -0.7   -0.6
H     0.6    0.9   -0.3
H     2.9    0.1   -1.0
H     2.5    1.3    1.8
H     3.4    2.0    0.5
H     5.0    0.1    0.6
H     4.6   -0.1    2.3
H     2.5   -1.4    1.7
H     4.2   -2.1   -0.7
H     2.9   -2.9   -0.0
