          17
 frame:         5254
C     1.4   -0.9    0.8
C     2.2   -1.1   -0.6
C     2.5   -2.5   -0.9
O     1.4   -0.5   -1.6
C     1.9   -0.0   -2.8
N     1.0    0.5   -3.6
N     3.2   -0.0   -3.1
H     1.2    0.2    0.9
H     2.0   -1.3    1.6
H     0.5   -1.4    0.7
H     3.1   -0.5   -0.5
H     1.6   -3.1   -0.9
H     3.2   -2.9   -0.1
H     3.0   -2.6   -1.8
H     0.0    0.1   -3.5
H     1.3    0.6   -4.5
H     3.8   -0.3   -2.4
