          19
 frame:         4227
C     2.0   -0.8    0.7
O     2.0    0.2   -0.3
C     2.7    1.4   -0.0
C     2.4    2.3   -1.2
C     2.3    2.0    1.3
O     4.1    1.1    0.1
C     4.7    0.6   -1.1
H     1.6   -1.7    0.2
H     1.4   -0.6    1.6
H     3.1   -1.0    1.0
H     2.6    1.8   -2.2
H     3.0    3.2   -1.1
H     1.3    2.6   -1.2
H     2.6    1.4    2.1
H     1.2    2.1    1.4
H     2.8    3.0    1.4
H     5.7    0.2   -0.8
H     4.9    1.4   -1.9
H     4.2   -0.2   -1.5
