          16
 frame:          601
N     2.9   -1.1   -0.6
C     2.4    0.1    0.2
C     3.4    1.2    0.2
C     3.5    2.1   -1.0
C     2.8    2.6    0.3
N     3.5    3.7    1.0
H     2.2   -1.8   -0.6
H     3.8   -1.4   -0.2
H     2.2   -0.3    1.3
H     1.4    0.4   -0.2
H     4.3    1.1    0.8
H     2.8    1.9   -1.8
H     4.5    2.5   -1.2
H     1.7    2.7    0.2
H     4.5    3.8    0.8
H     3.3    3.6    2.0
