          13
 frame:          962
C     0.1    0.9   -0.1
N    -0.8   -0.3    0.1
C     0.7   -0.5   -0.0
C     1.4   -0.9    1.2
C     1.1   -2.2    1.9
O     2.3   -2.0    1.1
H     0.1    1.4   -1.1
H     0.1    1.6    0.8
H    -1.2   -0.6   -0.8
H     1.2   -0.9   -0.9
H     1.9   -0.1    1.9
H     0.3   -2.8    1.5
H     1.3   -2.3    3.0
