          17
 frame:         4465
O     1.4   -0.1    0.4
C     2.7    0.3   -0.1
C     2.8   -0.1   -1.6
C     2.7   -1.6   -1.8
C     3.6   -2.4   -2.4
C     2.9    1.8    0.1
C     3.9    2.4    0.8
H     1.4    0.2    1.3
H     3.5   -0.2    0.5
H     3.7    0.2   -2.0
H     2.0    0.4   -2.1
H     1.8   -2.1   -1.3
H     4.5   -1.9   -2.8
H     3.5   -3.5   -2.5
H     2.2    2.4   -0.4
H     4.6    1.8    1.4
H     3.9    3.4    0.9
