          18
 frame:         1792
C     1.1    0.4   -0.4
C     2.5    0.0   -0.1
C     3.2   -1.1   -0.7
N     3.5    0.2   -1.1
C     4.8    0.7   -0.7
C     5.9    0.9   -1.7
C     5.2    2.1   -1.1
H     0.9    1.5   -0.3
H     0.4   -0.2    0.2
H     0.8    0.2   -1.5
H     2.8    0.2    0.9
H     2.7   -1.8   -1.5
H     3.9   -1.7   -0.1
H     5.1    0.4    0.3
H     5.6    0.7   -2.7
H     6.9    0.7   -1.4
H     5.7    2.7   -0.3
H     4.4    2.7   -1.7
