          17
 frame:          404
C     2.2   -0.5   -1.4
C     2.4    0.1   -0.1
C     3.4    1.3   -0.1
C     2.8    2.6   -0.6
N     2.5    3.0    0.8
C     3.5    2.0    1.3
H     1.5   -1.4   -1.4
H     3.2   -0.9   -1.8
H     1.9    0.2   -2.2
H     2.8   -0.7    0.6
H     1.4    0.4    0.3
H     4.4    1.0   -0.5
H     1.9    2.5   -1.3
H     3.6    3.2   -1.1
H     2.8    4.0    1.0
H     4.5    2.4    1.5
H     3.1    1.5    2.2
