          14
 frame:         6602
O     1.5    0.1    1.0
C     2.4    0.1    0.2
N     2.9   -1.1   -0.3
C     4.0   -1.3   -1.2
C     4.9   -0.0   -1.1
C     4.0    1.1   -1.3
O     3.0    1.2   -0.2
H     2.4   -1.9    0.0
H     4.6   -2.2   -0.8
H     3.7   -1.5   -2.2
H     5.5    0.0   -0.2
H     5.6   -0.1   -2.0
H     4.5    2.1   -1.2
H     3.4    1.1   -2.2
