          13
 frame:          981
C     1.0    0.1   -0.2
C     2.5    0.1    0.1
N     3.4   -0.8   -0.6
C     3.4    0.7   -1.0
C     4.6    1.4   -0.6
O     5.0    2.5   -1.1
H     0.5    1.0    0.1
H     0.5   -0.7    0.4
H     0.8   -0.0   -1.3
H     2.8    0.3    1.1
H     2.9   -1.3   -1.4
H     2.9    1.0   -1.9
H     5.2    0.9    0.2
