          21
 frame:         3684
C     1.1   -0.2    0.2
C     2.6   -0.1    0.1
C     3.2    1.3    0.2
C     2.8    2.0    1.6
C     3.3    1.2    2.8
C     4.7    1.3   -0.1
O     5.3    2.6   -0.0
H     0.8   -1.3   -0.0
H     0.6    0.4   -0.6
H     0.7    0.0    1.2
H     2.9   -0.5   -0.9
H     3.1   -0.8    0.8
H     2.7    1.9   -0.6
H     1.7    2.1    1.6
H     3.3    3.0    1.6
H     2.8    0.2    2.9
H     3.0    1.8    3.7
H     4.4    1.1    2.9
H     4.9    0.8   -1.0
H     5.2    0.7    0.7
H     4.9    3.1   -0.8
