          18
 frame:         5288
C     0.9   -0.0    0.7
C     2.4   -0.1    0.3
C     3.0    1.3    0.2
O     4.4    1.2   -0.1
N     5.0    2.4   -0.2
C     6.2    2.4   -0.5
C     7.0    3.6   -0.7
H     0.5   -1.0    0.7
H     0.3    0.6   -0.0
H     0.8    0.4    1.7
H     2.5   -0.5   -0.7
H     2.9   -0.7    1.0
H     2.9    1.8    1.2
H     2.5    2.0   -0.5
H     6.7    1.4   -0.7
H     6.4    4.5   -0.4
H     7.4    3.7   -1.7
H     7.9    3.6    0.0
