          12
 frame:          200
N     0.9    0.0    0.1
C     2.4    0.0   -0.0
C     3.1    1.0    0.9
O     4.0   -0.0    1.5
C     3.1   -1.0    0.8
H     0.6   -0.8   -0.4
H     0.5    0.8   -0.3
H     2.8    0.1   -1.0
H     2.4    1.5    1.7
H     3.7    1.8    0.4
H     3.8   -1.8    0.3
H     2.5   -1.6    1.5
