          15
 frame:         6626
O     3.1   -1.0   -0.5
C     2.4    0.0    0.1
C     3.2    1.3   -0.0
C     3.4    1.9   -1.4
C     3.2    3.4   -1.2
N     2.8    3.6    0.0
N     2.5    2.4    0.7
H     2.6   -1.8   -0.5
H     2.2   -0.2    1.2
H     1.4    0.2   -0.4
H     4.2    1.1    0.4
H     2.5    1.5   -2.1
H     4.3    1.6   -1.9
H     3.4    4.2   -1.9
H     2.7    2.5    1.7
