          17
 frame:         5068
C     1.0   -0.3    0.1
C     2.5    0.0   -0.1
C     3.1   -0.8   -1.2
C     2.7    1.5   -0.2
N     2.2    2.3   -1.1
N     3.4    2.1    0.8
O     3.8    3.5    0.5
H     0.6    0.2    0.9
H     0.8   -1.4    0.2
H     0.4   -0.0   -0.8
H     3.0   -0.3    0.9
H     2.6   -0.5   -2.2
H     3.0   -1.8   -1.1
H     4.2   -0.5   -1.4
H     1.6    1.8   -1.8
H     4.3    1.6    1.1
H     3.3    3.6   -0.3
