          20
 frame:         1688
C     1.1    0.0   -0.2
C     2.6    0.0    0.0
C     3.0    1.2    0.9
C     4.5    0.7    1.4
C     4.6   -0.8    1.1
C     3.1   -1.2    0.7
N     3.2   -2.5   -0.1
H     0.8   -0.8   -0.9
H     0.7    0.9   -0.7
H     0.5   -0.1    0.7
H     3.1    0.1   -1.0
H     2.4    1.2    1.8
H     3.0    2.1    0.5
H     5.2    1.3    0.9
H     4.6    0.9    2.5
H     5.2   -1.0    0.3
H     4.9   -1.4    1.9
H     2.5   -1.4    1.6
H     3.6   -2.4   -0.9
H     2.2   -2.8   -0.3
