          14
 frame:          193
C     1.8   -0.4    0.7
N     3.2    0.0    0.4
C     3.2    1.4   -0.1
C     4.7    1.9   -0.2
O     5.3    1.7    1.1
H     1.8   -1.5    1.0
H     1.1   -0.3   -0.2
H     1.4    0.2    1.5
H     3.6   -0.6   -0.3
H     2.6    2.0    0.5
H     2.8    1.5   -1.2
H     4.7    2.9   -0.5
H     5.2    1.3   -0.9
H     4.9    0.9    1.5
