          21
 frame:         2501
C     0.8   -0.3   -0.2
C     2.3   -0.6   -0.4
N     2.7   -1.3   -1.7
C     3.1    0.6   -0.2
C     4.7    0.4   -0.2
C     5.2   -0.5    0.9
N     4.9    0.1    2.2
H     0.6    0.1    0.7
H     0.2   -1.3   -0.4
H     0.5    0.4   -1.0
H     2.6   -1.4    0.4
H     2.4   -0.7   -2.4
H     2.2   -2.2   -1.8
H     2.9    1.1    0.8
H     2.9    1.4   -1.0
H     5.2    1.4   -0.2
H     5.0    0.0   -1.2
H     6.3   -0.6    0.7
H     4.8   -1.5    0.8
H     5.4    0.9    2.4
H     5.3   -0.6    2.9
