          16
 frame:         2678
C     1.0   -0.1   -0.1
N     2.5    0.0    0.2
C     3.0    1.4    0.1
C     2.5    2.3    1.2
C     1.7    3.4    1.1
C     4.4    1.4   -0.0
C     5.6    1.4   -0.1
H     0.8   -1.2   -0.0
H     0.8    0.2   -1.1
H     0.4    0.5    0.6
H     3.0   -0.6   -0.3
H     2.6    1.8   -0.9
H     2.8    1.9    2.2
H     1.4    3.7    0.1
H     1.4    4.0    1.9
H     6.7    1.4   -0.1
