          12
 frame:          465
C     0.9   -0.0   -0.0
C     2.4   -0.0   -0.0
C     3.6   -0.0   -0.0
C     5.1    0.0    0.0
N     5.7   -1.2   -0.2
N     5.8    1.1    0.1
H     0.6    1.0   -0.1
H     0.6   -0.4    0.9
H     0.6   -0.6   -0.8
H     5.2   -2.0    0.1
H     6.7   -1.1    0.1
H     5.1    1.9    0.2
