          12
 frame:          939
O     1.4   -0.2    0.2
C     2.7    0.3   -0.0
C     3.1   -0.1   -1.4
C     4.4   -0.5   -1.7
C     2.7    1.8    0.1
O     1.6    2.4    0.4
H     0.9    0.5    0.5
H     3.4   -0.1    0.7
H     2.4    0.1   -2.2
H     5.1   -0.7   -0.9
H     4.7   -0.8   -2.7
H     3.6    2.3   -0.1
