          19
 frame:         3449
C     3.0   -0.9    0.5
C     2.3    0.4    0.5
C     3.2    1.6    0.1
C     3.5    1.9   -1.4
C     2.6    2.8   -0.6
O     4.4    1.8    0.9
C     4.1    2.3    2.2
H     2.4   -1.7    0.8
H     3.9   -0.9    1.1
H     3.4   -1.2   -0.5
H     1.9    0.7    1.5
H     1.4    0.4   -0.1
H     2.9    1.2   -2.1
H     4.5    2.2   -1.7
H     3.1    3.8   -0.3
H     1.6    2.9   -0.7
H     3.6    1.6    2.8
H     3.6    3.3    2.1
H     5.1    2.5    2.6
