          17
 frame:         3076
C    -1.2   -0.0    1.0
C    -0.6   -1.0    0.0
C     0.9   -1.3    0.2
C     1.7   -0.0   -0.1
C     0.9    1.3    0.2
C    -0.6    1.0    0.0
O    -0.8    0.0   -1.1
H    -0.7   -0.0    2.0
H    -2.2   -0.0    1.1
H    -1.2   -1.9   -0.2
H     1.0   -1.7    1.2
H     1.2   -2.1   -0.5
H     1.9    0.0   -1.1
H     2.6   -0.0    0.5
H     1.2    2.1   -0.5
H     1.0    1.7    1.2
H    -1.2    1.9   -0.2
