          13
 frame:           30
C     1.0   -0.0   -0.0
C     2.5    0.0    0.0
C     3.0    1.4    0.0
N     4.5    1.4   -0.0
H     0.6   -1.1   -0.0
H     0.6    0.5   -0.9
H     0.5    0.5    0.9
H     2.9   -0.5   -0.9
H     2.9   -0.5    0.9
H     2.6    2.0    0.9
H     2.7    2.0   -0.8
H     4.9    1.0    0.8
H     4.9    2.4   -0.0
