          15
 frame:         3250
C     1.0   -0.1    0.1
C     2.5    0.1    0.0
C     3.1    1.2    0.8
C     4.5    0.7    1.3
C     4.3   -0.8    1.3
O     4.9   -1.7    1.9
O     3.1   -1.1    0.6
H     0.7   -0.9   -0.5
H     0.6    0.8   -0.4
H     0.7   -0.1    1.1
H     2.9    0.1   -1.0
H     2.5    1.4    1.7
H     3.2    2.1    0.2
H     5.3    0.9    0.5
H     4.9    1.0    2.2
