          15
 frame:         3093
C    -0.1    1.5    0.6
C    -1.4    0.7    0.2
C    -1.5   -0.5   -0.3
C    -0.3   -1.4   -0.6
C     0.8   -0.8    0.3
O     2.1   -0.2    0.1
C     0.9    0.6   -0.2
H     0.1    1.5    1.7
H    -0.1    2.5    0.3
H    -2.3    1.3    0.4
H    -2.5   -0.9   -0.5
H    -0.5   -2.5   -0.2
H    -0.0   -1.5   -1.6
H     0.5   -0.9    1.4
H     0.8    0.8   -1.2
