          15
 frame:         3557
C     0.9   -0.0   -0.0
C     2.4   -0.0   -0.0
C     3.6   -0.0   -0.0
C     5.1   -0.0    0.0
C     5.8    1.0    0.8
O     6.7    0.0    1.5
C     5.8   -1.0    0.9
H     0.6    0.9    0.5
H     0.6   -0.9    0.5
H     0.6   -0.0   -1.0
H     5.5   -0.1   -1.0
H     5.2    1.5    1.6
H     6.4    1.8    0.3
H     6.4   -1.8    0.5
H     5.2   -1.4    1.8
