          21
 frame:         2736
C     1.1   -0.1    0.2
N     2.5   -0.1    0.1
C     3.0    1.3   -0.1
C     4.6    1.3   -0.2
C     5.1    0.6   -1.4
N     5.0    2.8   -0.3
C     6.4    3.0   -0.0
H     0.8   -1.1    0.3
H     0.5    0.4   -0.6
H     0.8    0.4    1.1
H     2.8   -0.7   -0.7
H     2.7    1.9    0.7
H     2.6    1.8   -1.1
H     5.0    0.8    0.7
H     4.7    1.0   -2.3
H     4.9   -0.5   -1.4
H     6.2    0.6   -1.5
H     4.4    3.3    0.4
H     7.0    2.6   -0.8
H     6.8    2.5    0.9
H     6.6    4.1    0.1
