          15
 frame:         3977
C     1.1   -0.5    0.1
C     2.6   -0.3   -0.0
O     3.4   -1.2   -0.1
C     3.1    1.1    0.0
C     4.4    1.4   -0.0
C     5.0    2.8    0.0
C     6.3    3.0   -0.0
H     0.6    0.0   -0.8
H     0.8   -0.1    1.0
H     0.9   -1.6    0.0
H     2.4    1.9    0.1
H     5.1    0.6   -0.1
H     4.2    3.6    0.1
H     7.0    2.2   -0.1
H     6.7    4.1    0.0
