          17
 frame:         4514
O     0.9    0.6   -0.6
C     2.2    0.4   -0.2
C     3.0    1.7   -0.5
C     4.5    1.6   -0.1
O     5.2    0.6   -0.9
C     5.1    3.0   -0.2
C     6.3    3.2   -0.8
H     0.4   -0.3   -0.5
H     2.7   -0.4   -0.8
H     2.3    0.1    0.8
H     2.5    2.5    0.1
H     2.9    2.0   -1.5
H     4.5    1.2    0.9
H     5.2    0.9   -1.8
H     4.5    3.8    0.3
H     6.8    2.5   -1.2
H     6.7    4.2   -0.8
