          15
 frame:         6558
O     0.9    0.1    0.3
C     2.3   -0.0   -0.1
C     3.1    1.1    0.6
N     4.1   -0.0    0.9
C     3.2   -1.1    0.6
N     4.9   -0.1    2.0
C     5.3    1.0    2.6
H     0.4   -0.6   -0.2
H     2.4   -0.0   -1.2
H     2.7    1.4    1.5
H     3.5    1.9   -0.0
H     3.6   -1.9    0.0
H     2.7   -1.5    1.5
H     6.0    0.9    3.4
H     5.0    2.0    2.3
