          12
 frame:         6805
O     0.8    0.9   -1.1
C     2.0    1.1   -1.0
N     2.6    1.8   -0.0
O     4.0    1.5    0.3
C     4.8    2.7    0.0
C     6.2    2.4    0.3
C     7.3    2.2    0.6
H     2.8    0.6   -1.7
H     2.1    2.0    0.8
H     4.4    3.5    0.6
H     4.7    3.0   -1.1
H     8.3    2.0    0.8
