          17
 frame:         6041
C     1.4   -0.1    0.1
O     2.1    0.9    0.8
N     2.8    1.8   -0.2
C     2.1    3.0   -0.3
C     4.1    1.8    0.0
N     4.9    2.7   -0.3
C     6.3    2.5   -0.2
H     0.9   -0.7    0.9
H     2.0   -0.8   -0.4
H     0.6    0.3   -0.5
H     1.1    2.9   -0.7
H     2.6    3.6   -1.1
H     2.1    3.6    0.6
H     4.5    0.8    0.4
H     6.8    3.3    0.4
H     6.8    2.6   -1.2
H     6.6    1.6    0.2
