          16
 frame:         2808
N     1.6    0.6    1.0
C     2.7    0.0    0.2
C     3.4    1.0   -0.7
C     4.1    0.4    0.5
C     5.0   -0.8    0.2
C     4.2   -1.8   -0.2
C     2.7   -1.4   -0.3
H     0.8    0.6    0.4
H     1.4   -0.1    1.8
H     3.1    2.1   -0.6
H     3.8    0.7   -1.7
H     4.4    1.1    1.3
H     6.0   -0.8    0.3
H     4.6   -2.8   -0.6
H     2.3   -1.6   -1.3
H     2.1   -2.1    0.4
