          17
 frame:         3958
C     1.1    0.5   -1.1
C     2.6    0.6   -1.2
O     3.1    1.3   -0.0
C     4.5    1.4   -0.0
C     5.2    2.5   -0.9
O     5.9    3.0    0.3
C     5.1    2.1    1.2
H     0.6   -0.0   -1.9
H     0.6    1.5   -1.0
H     0.8   -0.0   -0.1
H     2.9    1.1   -2.1
H     3.0   -0.4   -1.2
H     4.9    0.4   -0.2
H     4.5    3.2   -1.3
H     5.9    2.1   -1.7
H     5.7    1.6    1.9
H     4.3    2.7    1.7
