          19
 frame:         4166
C     3.0   -0.4    1.1
O     2.7    0.3   -0.0
C     3.0    1.8    0.1
C     2.4    2.3   -1.3
C     2.3    2.4    1.2
C     4.5    1.9    0.0
C     5.3    2.6    0.9
H     2.9   -1.5    0.8
H     2.4   -0.2    2.0
H     4.1   -0.3    1.4
H     2.9    1.8   -2.1
H     2.6    3.4   -1.4
H     1.4    2.1   -1.3
H     2.7    2.1    2.2
H     1.2    2.2    1.2
H     2.5    3.5    1.2
H     5.0    1.3   -0.8
H     4.8    3.1    1.7
H     6.3    2.6    0.8
