          21
 frame:         1485
C     3.2   -1.1   -0.7
C     2.7   -0.1    0.3
C     3.3    1.3    0.3
C     2.6    2.2    1.2
C     4.8    1.2    0.5
C     5.3    0.7    1.9
C     5.7    1.7   -0.4
H     2.7   -2.1   -0.7
H     4.3   -1.3   -0.6
H     3.1   -0.7   -1.7
H     2.8   -0.6    1.3
H     1.6   -0.0    0.1
H     3.2    1.7   -0.8
H     2.6    1.9    2.3
H     1.5    2.3    1.0
H     3.0    3.2    1.2
H     5.0   -0.3    2.0
H     4.9    1.3    2.7
H     6.4    0.7    1.9
H     5.3    2.0   -1.4
H     6.8    1.7   -0.2
