          19
 frame:         3240
C     1.1   -0.0    0.4
C     2.5   -0.0   -0.2
C     2.4    0.0   -1.7
C     3.4    1.1    0.5
C     3.9   -0.0    1.4
O     5.3   -0.0    1.7
C     3.4   -1.1    0.4
H     1.1   -0.0    1.5
H     0.5   -0.9    0.1
H     0.5    0.9    0.1
H     3.4    0.0   -2.2
H     1.8    0.9   -2.1
H     1.8   -0.9   -2.1
H     2.9    2.0    0.9
H     4.2    1.4   -0.3
H     3.4   -0.0    2.4
H     5.8    0.0    0.9
H     4.2   -1.4   -0.3
H     2.9   -2.0    0.8
