          15
 frame:         1235
C     0.9   -1.2    0.4
C    -0.4   -1.5   -0.3
C    -1.4   -0.6   -0.2
C    -1.3    0.7    0.3
C    -0.2    1.5    0.3
C     1.1    1.1   -0.2
C     1.6   -0.1   -0.3
H     1.5   -2.1    0.5
H     0.7   -1.0    1.5
H    -0.5   -2.4   -0.8
H    -2.4   -0.9   -0.7
H    -2.3    1.2    0.6
H    -0.3    2.5    0.6
H     1.7    2.0   -0.7
H     2.5   -0.3   -0.8
