          14
 frame:         4903
C     1.0   -0.0    0.2
C     2.4    0.0   -0.3
O     2.5    1.1   -1.2
C     3.8    1.2   -1.7
C     4.4   -0.1   -1.9
N     3.9   -1.2   -1.6
O     2.6   -1.2   -1.0
H     0.8    0.9    0.8
H     0.8   -0.9    0.9
H     0.2   -0.1   -0.6
H     3.1    0.1    0.5
H     4.5    1.8   -1.0
H     3.8    1.8   -2.6
H     5.4   -0.2   -2.4
