          15
 frame:         3061
C     1.8   -0.0   -0.5
C     0.8    0.8    0.4
C     0.8   -0.8    0.4
C    -0.6   -1.0   -0.1
C    -0.8   -0.0   -1.3
C    -0.6    1.0   -0.1
O    -1.4   -0.0    0.7
H     1.7   -0.0   -1.6
H     2.8   -0.0   -0.2
H     1.2    1.3    1.2
H     1.2   -1.3    1.2
H    -1.1   -2.0   -0.1
H    -1.9   -0.0   -1.6
H    -0.2   -0.0   -2.2
H    -1.1    2.0   -0.1
