          14
 frame:         4666
C     1.0   -0.1    0.2
C     2.5    0.1   -0.1
C     3.2    1.1    0.8
C     4.1   -0.1    1.1
O     3.3   -1.0    0.4
C     5.5    0.0    0.5
N     6.5    0.1    0.1
H     0.6   -0.9   -0.4
H     0.4    0.8   -0.2
H     0.8   -0.2    1.2
H     2.6    0.3   -1.2
H     2.7    1.5    1.7
H     3.7    2.0    0.3
H     4.2   -0.3    2.2
