          16
 frame:         5364
C     1.8   -0.7    0.4
C     1.9    0.2   -0.9
N     0.8   -0.0   -1.8
C     2.0    1.7   -0.6
C     2.3    2.6   -1.8
O     1.7    2.2   -2.9
O     3.0    3.6   -1.7
H     2.7   -0.5    1.1
H     1.7   -1.8    0.2
H     0.9   -0.4    1.0
H     2.9   -0.1   -1.4
H    -0.1    0.0   -1.3
H     0.8   -1.0   -2.2
H     2.9    1.8    0.2
H     1.1    2.0   -0.1
H     1.2    1.4   -2.7
