          16
 frame:         5513
C     1.0   -0.2   -0.2
C     2.5    0.1    0.1
O     3.3   -0.8   -0.8
C     2.9    1.5   -0.1
C     2.8    2.2   -1.4
N     3.2    2.1    1.0
O     3.6    3.5    0.8
H     0.4    0.4    0.5
H     0.8   -1.2   -0.1
H     0.7    0.1   -1.2
H     2.7   -0.2    1.1
H     3.0   -0.7   -1.7
H     2.4    1.6   -2.2
H     3.8    2.5   -1.7
H     2.2    3.1   -1.3
H     3.8    3.7    1.7
