          16
 frame:          674
C     1.0   -0.0    0.0
C     2.5    0.0    0.1
C     3.1    1.2    0.9
C     4.5    0.7    1.2
C     4.3   -0.8    1.4
O     3.0   -1.1    0.7
H     0.7   -0.9   -0.5
H     0.6    0.8   -0.5
H     0.6   -0.1    1.0
H     2.9    0.1   -1.0
H     2.5    1.3    1.8
H     3.1    2.1    0.3
H     5.2    0.9    0.4
H     5.0    1.1    2.1
H     5.1   -1.4    0.9
H     4.2   -1.1    2.4
