          12
 frame:           16
C     0.3    1.0   -0.1
C     1.0   -0.3    0.2
C    -0.3   -1.0   -0.2
C    -1.0    0.3    0.1
H     0.6    1.9    0.6
H     0.5    1.4   -1.1
H     1.2   -0.5    1.2
H     1.9   -0.6   -0.4
H    -0.4   -1.3   -1.2
H    -0.7   -1.9    0.4
H    -1.9    0.7   -0.6
H    -1.4    0.4    1.1
