          18
 frame:         5869
C     2.1   -0.5   -1.4
O     2.3    0.1   -0.1
C     3.0    1.3   -0.1
C     2.4    2.6   -0.5
C     3.2    3.3    0.6
C     3.3    1.9    1.3
N     4.5    1.6    2.1
H     1.5   -1.4   -1.2
H     3.0   -0.7   -1.9
H     1.5    0.2   -2.0
H     4.0    1.1   -0.6
H     1.3    2.6   -0.3
H     2.6    2.9   -1.6
H     4.2    3.6    0.3
H     2.7    4.1    1.2
H     2.4    1.7    1.9
H     5.3    1.7    1.5
H     4.4    0.7    2.5
