          13
 frame:         7061
C     1.1   -0.3    0.0
C     2.5    0.1   -0.1
S     2.7    1.9    0.1
O     2.1    2.6   -1.1
O     2.4    2.3    1.5
C     4.5    2.2   -0.1
O     5.3    1.3   -0.3
H     1.0   -1.4   -0.1
H     0.5    0.2   -0.8
H     0.7    0.0    1.0
H     3.0   -0.1   -1.1
H     3.2   -0.3    0.7
H     4.8    3.3    0.0
