          21
 frame:         3645
C     1.9   -0.9    0.5
C     3.3   -0.5    0.3
C     4.1   -1.3   -0.7
C     3.4    1.0    0.0
C     4.7    1.7    0.1
C     4.7    3.2   -0.3
O     5.3    1.5    1.4
H     1.3   -0.4    1.3
H     1.8   -2.0    0.7
H     1.3   -0.8   -0.5
H     3.8   -0.6    1.3
H     3.6   -1.2   -1.7
H     4.0   -2.4   -0.5
H     5.1   -1.0   -0.8
H     2.7    1.6    0.7
H     3.0    1.2   -1.0
H     5.4    1.2   -0.6
H     4.0    3.7    0.4
H     4.3    3.3   -1.3
H     5.7    3.6   -0.2
H     4.8    2.0    2.0
