          13
 frame:         4686
C     1.0   -0.0    0.1
C     2.5    0.1    0.0
C     3.3    1.1   -0.0
C     4.7    0.7   -0.1
O     5.7    1.3   -0.0
N     4.6   -0.8   -0.2
N     3.2   -1.1    0.1
H     0.5    1.0    0.0
H     0.6   -0.5    1.0
H     0.6   -0.6   -0.8
H     3.0    2.2    0.0
H     5.2   -1.3    0.4
H     2.9   -1.9   -0.5
