          17
 frame:         3484
C     2.3   -0.5   -1.5
C     2.4    0.1   -0.1
C     3.3    1.3   -0.0
C     2.7    2.6   -0.7
C     3.1    3.4    0.7
O     3.2    4.5    1.0
C     3.4    2.0    1.4
H     1.6   -1.4   -1.5
H     3.2   -0.8   -1.9
H     1.8    0.3   -2.2
H     2.8   -0.7    0.6
H     1.4    0.3    0.3
H     4.3    1.1   -0.4
H     1.6    2.6   -0.8
H     3.2    3.0   -1.6
H     4.3    2.0    1.9
H     2.6    1.8    2.1
