          14
 frame:         5510
C     1.6   -0.5   -1.0
C     1.6    0.7   -0.0
O     0.7    0.9    0.7
C     2.8    1.6   -0.0
C     2.8    2.8    0.9
N     3.8    1.3   -0.8
O     4.8    2.2   -0.8
H     1.5   -0.1   -2.0
H     0.8   -1.1   -0.8
H     2.6   -1.0   -1.0
H     1.9    2.8    1.5
H     2.9    3.7    0.3
H     3.7    2.8    1.6
H     5.5    1.8   -1.4
