          17
 frame:          480
C     1.6   -0.5    0.9
C     3.0   -0.1    0.9
C     3.3    1.3    0.2
N     2.5    2.4    0.8
C     4.7    1.7    0.1
C     5.8    1.0    0.5
H     1.5   -1.5    1.3
H     1.2   -0.6   -0.2
H     0.9    0.1    1.4
H     3.6   -0.8    0.3
H     3.4   -0.1    1.9
H     2.9    1.2   -0.8
H     2.8    2.5    1.8
H     1.6    2.2    0.8
H     4.9    2.7   -0.3
H     5.7   -0.0    1.0
H     6.8    1.4    0.4
