          18
 frame:         5676
C     1.6   -0.2    0.3
N     2.9    0.2    0.6
C     3.2    1.6    0.5
C     2.4    2.5    1.5
C     4.7    1.8    0.7
C     5.7    1.8   -0.5
O     5.3    3.0    0.2
H     1.5   -1.3    0.3
H     1.2    0.2   -0.7
H     0.9    0.1    1.1
H     3.6   -0.3    0.0
H     3.0    2.0   -0.5
H     2.6    2.1    2.5
H     1.4    2.4    1.3
H     2.7    3.5    1.4
H     5.1    1.5    1.7
H     5.3    1.7   -1.5
H     6.7    1.5   -0.3
