          17
 frame:         5379
C     2.8   -1.1    0.6
C     2.4    0.2   -0.1
N     3.3    1.3    0.4
C     3.9    2.0   -0.4
N     4.6    3.1   -0.1
O     5.8    3.3   -0.9
C     5.8    4.7   -1.4
H     2.1   -1.9    0.2
H     2.8   -1.1    1.6
H     3.8   -1.4    0.3
H     1.4    0.4    0.2
H     2.4    0.1   -1.2
H     3.8    1.8   -1.5
H     4.8    3.1    0.9
H     6.7    4.7   -2.0
H     5.8    5.4   -0.6
H     4.9    4.9   -2.0
