          15
 frame:         5993
C     1.8    0.6    1.7
O     2.0    1.4    0.5
C     3.4    1.5    0.1
N     3.7    2.3   -0.8
N     4.3    0.8    0.8
C     4.6   -0.6    0.4
C     5.6    0.5    0.2
H     0.7    0.8    1.9
H     2.4    0.9    2.5
H     1.9   -0.5    1.5
H     2.9    2.9   -1.1
H     4.0   -0.9   -0.5
H     4.7   -1.4    1.2
H     6.4    0.5    0.9
H     5.7    0.9   -0.8
