          12
 frame:          659
C     0.3    1.0   -0.2
O    -0.8    0.2    0.3
C     0.5   -0.5    0.1
C     1.2   -0.9    1.4
C     1.3   -2.3    1.7
O     2.5   -1.5    1.2
H     0.2    1.3   -1.3
H     0.7    1.7    0.5
H     0.5   -1.2   -0.7
H     1.1   -0.2    2.2
H     0.9   -3.1    1.0
H     1.4   -2.6    2.7
