          16
 frame:         4624
C     0.9    0.0   -0.2
C     2.4   -0.1    0.0
C     3.2   -0.8   -1.0
C     3.3    0.7   -0.9
N     4.5    1.2   -0.3
C     4.5    2.2    0.6
O     5.5    2.8    1.0
H     0.5    0.9    0.3
H     0.4   -0.8    0.2
H     0.6    0.2   -1.2
H     2.7   -0.2    1.1
H     2.8   -1.3   -1.9
H     4.1   -1.4   -0.6
H     2.9    1.2   -1.7
H     5.4    1.1   -0.8
H     3.5    2.4    1.0
