          15
 frame:         2354
C     1.1    0.2    0.1
C     2.6   -0.1   -0.1
C     2.9   -0.9   -1.3
N     3.1   -1.5   -2.3
C     3.4    1.2   -0.2
C     3.8    1.9    1.1
N     4.8    1.2    0.3
H     0.9    0.7    1.0
H     0.6   -0.8    0.1
H     0.7    0.7   -0.8
H     3.0   -0.7    0.7
H     3.1    1.9   -1.0
H     3.6    1.5    2.0
H     3.8    3.0    1.1
H     5.4    1.8   -0.3
