          15
 frame:         4289
O     0.6    0.7   -0.3
C     1.6   -0.1    0.1
C     2.2   -1.1   -0.9
C     3.0    0.1   -0.5
O     4.1   -0.0    0.3
C     5.2   -0.6   -0.3
C     6.4   -0.6    0.4
H     0.6    1.6    0.1
H     1.6   -0.3    1.1
H     1.7   -1.1   -1.9
H     2.5   -2.0   -0.5
H     3.1    0.9   -1.3
H     5.1   -0.9   -1.3
H     6.5   -0.2    1.4
H     7.2   -1.1   -0.1
