          15
 frame:         6440
N     0.9    1.5    0.3
N     2.3    1.7    0.2
C     3.0    0.7    0.1
C     4.5    0.8   -0.1
C     5.3   -0.3   -0.2
C     5.0    2.2   -0.2
O     6.5    2.3   -0.2
H     0.5    2.2    0.7
H     0.6    0.6    0.6
H     2.6   -0.4    0.1
H     4.9   -1.3   -0.1
H     6.3   -0.2   -0.3
H     4.6    2.8    0.7
H     4.7    2.7   -1.1
H     6.8    2.0    0.7
