          17
 frame:         4433
O     2.7    3.3   -0.5
C     2.3    2.0   -0.2
C     3.3    1.4    0.8
C     4.7    1.3    0.3
C     5.7    2.6    0.3
C     6.6    1.7    1.1
O     5.6    0.6    1.2
H     2.0    3.7   -1.1
H     2.4    1.4   -1.1
H     1.3    1.9    0.2
H     3.0    0.4    1.1
H     3.3    2.0    1.7
H     4.8    0.8   -0.7
H     5.2    3.4    0.9
H     6.0    2.9   -0.6
H     7.5    1.3    0.6
H     6.9    2.0    2.1
