          16
 frame:          611
N     0.9    0.1   -0.2
C     2.3   -0.1   -0.2
C     3.0    1.2    0.3
C     4.5    1.0    0.4
C     5.4    1.4   -0.8
N     5.3    2.3    0.3
H     0.4   -0.8   -0.5
H     0.6    0.8   -0.8
H     2.7   -0.3   -1.2
H     2.6   -0.9    0.4
H     2.6    1.4    1.3
H     2.8    2.0   -0.3
H     4.9    0.2    1.0
H     4.9    1.7   -1.7
H     6.3    0.8   -0.9
H     6.1    2.2    0.9
