          20
 frame:         1971
C     2.2   -0.5   -1.6
C     2.4   -0.0   -0.1
C     3.2    1.2   -0.0
C     2.7    2.6   -0.5
N     3.0    3.3    0.8
C     3.4    1.9    1.4
C     4.7    1.9    2.1
H     1.6   -1.4   -1.6
H     3.2   -0.8   -2.0
H     1.8    0.2   -2.2
H     2.8   -0.8    0.5
H     1.4    0.2    0.3
H     4.2    1.1   -0.4
H     1.6    2.5   -0.7
H     3.1    3.0   -1.4
H     3.9    3.8    0.6
H     2.5    1.6    2.0
H     5.5    2.1    1.4
H     4.8    0.9    2.5
H     4.7    2.6    3.0
