          13
 frame:         3915
C     1.1   -0.0    0.0
C     2.6   -0.1    0.1
C     3.2   -1.4    0.1
O     2.5   -2.5    0.2
C     3.3    1.0   -0.0
C     4.8    1.2   -0.0
O     5.7    0.3    0.1
H     0.7    1.0   -0.0
H     0.7   -0.5    0.9
H     0.7   -0.6   -0.8
H     4.3   -1.5    0.1
H     2.8    2.0   -0.1
H     5.1    2.2   -0.1
