          14
 frame:         5447
C     0.7   -0.1    0.0
C     2.2   -0.0   -0.2
N     2.9    0.8    0.4
O     4.3    0.6    0.1
C     5.0    1.6    0.7
C     6.5    1.1    0.8
O     7.4    1.9    1.1
H     0.3   -1.0    0.4
H     0.1    0.1   -0.9
H     0.4    0.7    0.7
H     2.6   -0.8   -0.9
H     4.7    1.8    1.8
H     5.0    2.6    0.2
H     6.6    0.0    0.6
