          15
 frame:         3502
C     0.8    0.1    0.1
C     2.1    0.1    0.3
C     3.0    1.4    0.1
C     2.3    2.7    0.2
O     3.4    3.6    0.6
C     4.2    2.8    1.4
O     3.9    1.4    1.2
H     0.3   -0.9    0.2
H     0.3    0.9   -0.3
H     2.7   -0.8    0.6
H     3.6    1.3   -0.8
H     1.5    2.7    0.9
H     1.9    3.1   -0.8
H     5.3    3.0    1.2
H     4.0    3.1    2.5
