          16
 frame:         4630
C     1.0    0.0    0.1
C     2.5   -0.0   -0.1
C     3.0   -1.3   -0.8
C     3.3   -0.7   -2.2
C     3.7   -1.4   -3.4
N     3.3    0.6   -2.2
O     2.9    1.1   -0.9
H     0.7    1.0    0.6
H     0.7   -0.8    0.8
H     0.5   -0.1   -0.8
H     3.0    0.1    0.9
H     2.2   -2.0   -0.9
H     3.9   -1.7   -0.4
H     3.9   -0.8   -4.2
H     2.9   -2.1   -3.7
H     4.6   -2.1   -3.2
