          20
 frame:         2361
C     0.9   -0.2   -0.1
C     2.4   -0.2    0.0
C     2.8   -1.0    1.3
N     3.0   -0.8   -1.1
C     3.0    1.2    0.1
C     2.5    2.1    1.2
C     1.8    3.2    1.1
H     0.6    0.4   -1.0
H     0.4    0.3    0.8
H     0.5   -1.2   -0.1
H     2.4   -0.6    2.2
H     3.9   -1.0    1.4
H     2.5   -2.0    1.2
H     2.8   -0.3   -2.0
H     2.7   -1.8   -1.2
H     2.7    1.8   -0.8
H     4.1    1.2    0.1
H     2.8    1.7    2.2
H     1.5    3.6    0.2
H     1.6    3.8    2.0
