          18
 frame:         6172
N     2.1   -0.4   -1.4
C     2.4    0.0   -0.0
C     3.1    1.3   -0.0
C     2.5    2.6   -0.5
C     3.2    3.4    0.6
C     3.4    2.0    1.4
O     4.5    1.8    2.1
H     1.6   -1.3   -1.4
H     3.0   -0.7   -1.9
H     2.9   -0.7    0.6
H     1.4    0.2    0.5
H     4.1    1.2   -0.5
H     1.4    2.6   -0.3
H     2.6    3.0   -1.5
H     4.2    3.8    0.3
H     2.7    4.2    1.2
H     2.5    1.9    2.0
H     5.3    2.0    1.6
