          15
 frame:         2416
C     1.3    0.3    0.1
C     2.8    0.0   -0.1
C     2.9   -0.8   -1.4
N     3.1   -1.4   -2.4
N     3.5    1.3   -0.3
C     4.0    1.8    1.0
C     4.9    1.2    0.0
H     1.1    0.8    1.1
H     0.7   -0.7    0.2
H     0.8    0.9   -0.7
H     3.1   -0.6    0.7
H     3.8    1.2    1.9
H     3.9    2.9    1.1
H     5.6    1.9   -0.6
H     5.3    0.2    0.2
