          15
 frame:         4512
O     0.6    0.1    0.9
C     1.9   -0.4    0.5
C     2.8    0.8    0.2
C     4.2    0.5   -0.2
O     4.5   -0.7   -0.4
C     5.2    1.5   -0.5
C     4.9    2.8   -0.4
H     0.0   -0.6    1.1
H     1.8   -1.0   -0.4
H     2.3   -1.0    1.3
H     2.8    1.4    1.1
H     2.3    1.5   -0.5
H     6.1    1.1   -0.8
H     4.0    3.2   -0.1
H     5.7    3.6   -0.6
