          19
 frame:         2230
C     3.1   -0.9   -0.8
C     2.7    0.0    0.4
C     3.1    1.5    0.1
C     2.5    2.4    1.2
C     4.6    1.6    0.1
N     5.2    2.1   -1.0
N     6.6    2.1   -0.9
H     2.8   -2.0   -0.5
H     4.2   -0.9   -0.9
H     2.6   -0.7   -1.7
H     3.1   -0.3    1.3
H     1.6   -0.0    0.5
H     2.7    1.8   -0.9
H     2.8    2.2    2.2
H     1.4    2.3    1.2
H     2.7    3.5    1.0
H     5.1    1.4    1.0
H     6.9    2.8   -1.6
H     7.0    2.2   -0.0
