          13
 frame:         6425
N     1.1   -0.1   -0.1
N     2.5   -0.1    0.1
C     3.3   -1.2    0.1
C     4.6   -0.8    0.4
C     4.7    0.7    0.5
C     3.2    1.1    0.4
O     2.7    2.2    0.4
H     0.9    0.5   -0.9
H     0.6    0.3    0.7
H     2.8   -2.2   -0.0
H     5.4   -1.5    0.4
H     5.0    1.0    1.5
H     5.3    1.1   -0.2
