          15
 frame:         5185
C     0.9   -0.1    0.2
C     2.4   -0.1    0.0
C     3.2   -1.2    0.0
N     3.0    1.2   -0.1
N     4.5    1.2   -0.2
C     2.4    2.4   -0.2
O     3.0    3.5   -0.3
H     0.6    0.5    1.1
H     0.6   -1.1    0.4
H     0.4    0.3   -0.7
H     2.7   -2.2    0.1
H     4.2   -1.2   -0.2
H     4.9    1.1    0.7
H     4.7    2.2   -0.5
H     1.3    2.3   -0.2
