          18
 frame:         5803
C     1.3    2.8    0.2
N     2.6    2.2    0.5
C     3.6    2.1   -0.4
O     3.4    2.4   -1.6
C     4.9    1.5    0.1
C     5.2    0.2   -0.7
C     6.0    2.5   -0.2
H     1.1    3.7    0.8
H     0.5    2.0    0.5
H     1.3    3.0   -0.8
H     2.9    2.0    1.5
H     4.8    1.3    1.1
H     5.2    0.3   -1.7
H     4.4   -0.6   -0.4
H     6.2   -0.2   -0.3
H     6.1    2.8   -1.3
H     7.0    2.1    0.1
H     5.9    3.5    0.4
