          17
 frame:         2308
C     5.1   -1.0   -0.0
C     3.9   -0.2   -0.5
C     3.6    1.0    0.3
C     3.6    2.3   -0.3
N     3.4    3.4    0.4
C     3.5    4.7   -0.1
N     3.9    5.2   -1.2
H     5.3   -1.9   -0.6
H     5.0   -1.3    1.0
H     6.0   -0.4   -0.1
H     3.0   -0.9   -0.4
H     4.0    0.0   -1.6
H     3.5    0.9    1.4
H     3.8    2.4   -1.3
H     3.1    3.4    1.4
H     3.2    5.5    0.7
H     4.1    4.4   -1.8
