          19
 frame:          553
C     1.0   -0.1   -0.0
N     2.4    0.1    0.0
C     2.9    1.5   -0.0
C     2.5    2.2   -1.3
C     2.5    2.2    1.2
C     4.5    1.4   -0.0
H     0.8   -1.2   -0.1
H     0.5    0.4   -0.9
H     0.5    0.3    0.9
H     2.8   -0.4   -0.7
H     2.9    1.7   -2.2
H     2.9    3.3   -1.3
H     1.4    2.4   -1.4
H     2.7    1.7    2.1
H     1.4    2.4    1.2
H     2.9    3.2    1.3
H     4.8    0.8    0.9
H     4.9    2.4   -0.0
H     4.8    0.8   -0.9
