          18
 frame:         2603
C     1.2   -0.1    0.5
N     2.4    0.0   -0.3
C     2.8   -1.2   -1.0
C     3.5   -0.7   -2.2
C     3.4    0.7   -2.3
C     3.9    1.6   -3.4
C     2.5    1.1   -1.2
H     1.1    0.9    1.1
H     1.3   -0.9    1.2
H     0.3   -0.2   -0.1
H     1.9   -1.8   -1.4
H     3.3   -1.9   -0.4
H     4.1   -1.3   -2.9
H     4.6    2.4   -2.9
H     3.1    2.1   -3.9
H     4.5    1.1   -4.1
H     2.8    2.1   -0.7
H     1.5    1.4   -1.6
