          17
 frame:         3357
C     0.9   -0.0   -0.1
C     2.4   -0.0    0.1
C     3.1    1.2   -0.4
O     3.2    1.1   -1.9
C     4.1    0.1   -2.3
C     3.9   -1.2   -1.5
C     3.1   -1.2   -0.4
H     0.4    0.8    0.4
H     0.4   -0.9    0.3
H     0.7    0.1   -1.2
H     2.6   -0.0    1.2
H     2.5    2.1   -0.2
H     4.1    1.4    0.0
H     5.2    0.4   -2.1
H     3.9   -0.1   -3.3
H     4.3   -2.1   -1.9
H     2.9   -2.2    0.1
