          17
 frame:         5789
C     1.0   -0.4    0.1
N     2.4   -0.2   -0.2
C     2.9   -1.1   -1.2
N     2.6    1.2   -0.7
C     3.4    2.1   -0.0
C     4.1    1.6    1.2
O     3.5    3.2   -0.5
H     0.7    0.3    0.9
H     0.9   -1.4    0.5
H     0.3   -0.3   -0.8
H     2.8   -2.1   -0.8
H     4.0   -0.9   -1.4
H     2.4   -1.1   -2.2
H     2.1    1.5   -1.5
H     3.4    1.3    2.0
H     4.7    2.5    1.6
H     4.8    0.8    1.0
