          14
 frame:          496
C     0.8    0.1   -0.0
C     2.2   -0.2    0.1
C     2.6   -1.7   -0.1
N     3.0    0.8    0.3
N     4.4    0.3    0.4
C     5.2    1.3    0.6
H     0.6    1.2    0.1
H     0.2   -0.4    0.7
H     0.4   -0.2   -1.0
H     1.7   -2.3   -0.2
H     3.2   -2.0    0.8
H     3.3   -1.8   -0.9
H     6.3    1.1    0.6
H     4.8    2.4    0.7
