          13
 frame:         4860
C     1.0    0.1   -0.0
C     2.5    0.0    0.0
N     3.2    1.1    0.2
N     4.6    0.6    0.1
C     4.6   -0.6   -0.0
C     3.3   -1.2   -0.1
O     3.0   -2.1   -1.2
H     0.6    1.1   -0.0
H     0.5   -0.4    0.9
H     0.6   -0.4   -0.9
H     5.6   -1.2   -0.1
H     3.1   -1.8    0.8
H     3.2   -1.7   -2.0
