          14
 frame:          237
C    -1.2    0.0   -0.5
C    -0.4   -0.6    0.7
C    -0.6    0.9    1.3
C    -0.4    1.3   -0.2
C     1.0    0.7   -0.4
C     1.0   -0.5    0.2
H    -1.1   -0.5   -1.5
H    -2.3    0.1   -0.3
H    -0.7   -1.4    1.3
H    -1.6    1.1    1.7
H     0.2    1.2    2.0
H    -0.6    2.3   -0.6
H     1.9    1.2   -1.0
H     1.8   -1.2    0.2
