          14
 frame:          942
O     0.8    0.0    0.0
C     2.2    0.1   -0.1
C     2.7    1.4    0.0
C     1.9    2.5    0.2
C     4.2    1.6   -0.0
O     4.8    0.9    1.1
H     0.5   -0.9   -0.0
H     2.5   -0.3   -1.1
H     2.7   -0.6    0.6
H     0.8    2.4    0.2
H     2.3    3.5    0.3
H     4.5    2.6   -0.1
H     4.6    1.1   -0.9
H     4.5    1.3    1.9
