          15
 frame:         3390
C     1.0    0.1    0.1
C     2.5   -0.1   -0.0
O     3.2    1.0    0.7
C     4.1   -0.0    1.2
C     3.2   -1.2    0.8
C     3.8   -2.3    0.1
C     4.2   -3.3   -0.5
H     0.5   -0.8   -0.4
H     0.7    1.0   -0.4
H     0.7    0.1    1.2
H     2.8   -0.1   -1.1
H     5.1   -0.0    0.7
H     4.3    0.1    2.3
H     2.6   -1.5    1.7
H     4.7   -4.1   -1.0
