          14
 frame:         6382
N     1.1   -0.2    0.2
C     1.9    0.5   -0.7
O     1.8    0.5   -1.9
C     3.0    1.3    0.0
C     4.3    1.6   -0.8
C     3.3    2.7   -0.5
O     3.5    3.7    0.5
H     1.1   -0.1    1.2
H     0.3   -0.7   -0.2
H     3.1    1.2    1.1
H     4.3    1.2   -1.8
H     5.2    1.6   -0.2
H     2.6    3.0   -1.4
H     4.2    4.3    0.1
