          18
 frame:         5329
C     0.8   -0.6   -0.0
C     2.3   -0.2   -0.2
N     3.0   -1.0   -1.3
C     2.4    1.3   -0.5
C     3.9    1.8   -0.5
C     4.6    2.1   -1.8
O     4.1    3.1   -0.9
H     0.4   -0.0    0.8
H     0.7   -1.6    0.2
H     0.2   -0.3   -0.9
H     2.8   -0.4    0.7
H     2.5   -0.8   -2.2
H     2.9   -2.0   -1.1
H     1.9    1.9    0.3
H     1.9    1.6   -1.4
H     4.5    1.5    0.3
H     4.0    1.9   -2.7
H     5.7    2.0   -1.8
