          14
 frame:         4844
C     0.9    0.0    0.2
C     2.4    0.0   -0.0
N     3.2    1.0    0.8
C     4.1    0.0    1.3
O     5.1    0.1    1.9
C     3.2   -1.1    0.6
O     3.9   -1.9   -0.3
H     0.4   -0.8   -0.3
H     0.4    1.0   -0.1
H     0.7   -0.1    1.3
H     2.6    0.1   -1.1
H     3.2    2.0    0.8
H     2.7   -1.7    1.3
H     4.8   -2.2    0.1
