          20
 frame:         2029
C     1.2    0.2    0.2
C     2.6   -0.0   -0.1
C     2.8   -0.8   -1.4
C     3.4    1.3   -0.2
C     3.9    1.9    1.1
C     4.9    1.4    0.1
N     5.8    2.3   -0.5
H     1.1    0.7    1.2
H     0.6   -0.8    0.3
H     0.7    0.7   -0.6
H     3.1   -0.7    0.7
H     2.4   -0.2   -2.3
H     2.3   -1.8   -1.4
H     3.9   -1.0   -1.7
H     3.0    2.0   -0.9
H     3.7    1.4    2.1
H     3.8    3.0    1.2
H     5.3    0.4    0.5
H     5.4    3.2   -0.6
H     6.0    1.9   -1.5
