          12
 frame:         6576
O     0.9   -0.1   -0.0
C     2.3    0.0   -0.0
C     3.1    1.1    0.0
N     4.4    0.6    0.0
C     4.4   -0.7    0.0
C     3.1   -1.1    0.0
O     2.7   -2.5   -0.0
H     0.5    0.8   -0.0
H     2.9    2.2    0.0
H     5.2    1.2    0.0
H     5.3   -1.3    0.0
H     1.7   -2.4   -0.0
