          16
 frame:         4703
C     1.0   -0.0    0.3
C     2.4    0.0   -0.1
C     3.3    1.1    0.7
N     4.2   -0.1    1.2
C     3.4   -1.1    0.5
C     5.2   -0.1    2.0
O     5.7    0.9    2.5
H     0.5   -0.9   -0.2
H     0.5    0.9   -0.1
H     0.8   -0.1    1.4
H     2.6    0.1   -1.2
H     2.8    1.6    1.5
H     3.9    1.8    0.1
H     3.9   -1.7   -0.2
H     2.8   -1.8    1.2
H     5.6   -1.1    2.2
