          17
 frame:         3434
C     1.0   -0.0    0.5
C     2.4   -0.0   -0.2
O     2.2   -0.0   -1.6
C     3.3    1.1    0.4
C     3.9    0.0    1.3
O     5.3    0.1    1.6
C     3.4   -1.1    0.4
H     1.1   -0.0    1.6
H     0.5   -0.9    0.2
H     0.4    0.8    0.1
H     3.0   -0.0   -2.0
H     2.9    2.0    0.8
H     4.1    1.4   -0.4
H     3.4    0.0    2.3
H     5.8    0.1    0.8
H     4.1   -1.4   -0.3
H     2.9   -2.0    0.9
