          12
 frame:         4740
C     0.9    0.0    0.0
C     2.4    0.1   -0.0
C     3.3    1.1   -0.1
N     4.6    0.7   -0.2
O     4.6   -0.7   -0.1
C     3.3   -1.1    0.0
O     3.0   -2.3    0.1
H     0.5    1.0    0.0
H     0.6   -0.5    0.9
H     0.6   -0.5   -0.8
H     3.1    2.2   -0.1
H     5.3    1.1    0.4
