          12
 frame:         3015
N     1.9   -0.8    0.4
C     2.4    0.2   -0.1
N     3.0    1.2    0.7
C     4.1    1.9    0.0
C     2.8    2.6    0.2
C     2.7    3.6    1.3
N     2.5    4.4    2.1
H     1.4   -1.4   -0.3
H     2.4    0.5   -1.2
H     4.4    1.6   -1.0
H     5.0    2.1    0.7
H     2.2    2.8   -0.7
