          14
 frame:         4781
C     1.0   -0.0    0.3
C     2.4   -0.0   -0.1
C     2.8    1.3   -0.8
O     4.2    1.1   -1.3
C     4.5   -0.1   -1.8
N     3.8   -1.2   -1.8
O     2.5   -1.1   -1.1
H     0.8    0.7    1.1
H     0.7   -1.0    0.8
H     0.3    0.2   -0.5
H     3.1   -0.3    0.7
H     2.9    2.1   -0.1
H     2.2    1.5   -1.6
H     5.4   -0.1   -2.3
