          19
 frame:         4218
C     1.2    1.5   -1.4
O     2.6    1.6   -1.3
C     3.1    1.0   -0.1
C     4.6    1.4    0.0
C     5.1    0.9    1.4
C     5.4    0.8   -1.1
O     4.7    2.8    0.0
H     0.9    2.0   -2.3
H     0.7    1.9   -0.6
H     0.9    0.4   -1.5
H     3.0   -0.1   -0.1
H     2.6    1.4    0.8
H     4.6    1.3    2.2
H     6.2    1.2    1.5
H     5.1   -0.2    1.4
H     5.0    1.1   -2.1
H     5.4   -0.3   -1.1
H     6.5    1.1   -1.1
H     4.2    3.1   -0.7
