          14
 frame:         2437
C     2.7   -1.2    0.3
C     2.2    0.1    0.1
N     3.0    1.2    0.1
C     2.5    2.5   -0.1
C     3.5    3.4   -0.1
C     4.7    2.7    0.1
C     4.4    1.3    0.2
H     2.0   -2.0    0.3
H     3.7   -1.4    0.4
H     1.2    0.3    0.1
H     1.4    2.7   -0.1
H     3.4    4.5   -0.2
H     5.8    3.1    0.1
H     5.0    0.5    0.3
