          18
 frame:         1642
C     0.7    0.0   -0.1
C     2.2    0.0    0.2
C     3.2   -0.8   -0.6
C     2.9   -1.4   -1.9
N     2.3   -0.3   -2.7
C     2.9    0.9   -2.2
C     3.2    0.7   -0.8
H     0.2    0.9    0.3
H     0.2   -0.8    0.5
H     0.5   -0.1   -1.1
H     2.5    0.1    1.2
H     4.0   -1.4    0.0
H     3.8   -1.9   -2.4
H     2.1   -2.3   -1.9
H     2.4   -0.5   -3.7
H     3.8    1.2   -2.8
H     2.1    1.8   -2.3
H     4.0    1.3   -0.3
