          16
 frame:         4939
C     1.4   -0.5   -0.5
C     2.2    0.7   -0.9
C     2.4    1.7    0.2
C     3.6    1.6    1.1
N     3.5    2.6    0.0
C     3.4    4.0    0.3
O     4.1    4.6    1.2
H     1.2   -1.2   -1.3
H     0.4   -0.3   -0.1
H     1.9   -1.1    0.3
H     1.6    1.2   -1.8
H     3.1    0.4   -1.4
H     1.5    2.1    0.7
H     4.4    0.8    0.9
H     3.5    1.9    2.1
H     2.7    4.5   -0.3
