          17
 frame:         3637
C     0.8   -0.5    0.0
C     2.3   -0.0   -0.1
C     3.1   -0.9   -1.0
C     2.4    1.4   -0.5
C     3.0    2.4    0.3
C     3.0    3.8   -0.2
O     3.5    4.7    0.4
H     0.3    0.2    0.7
H     0.7   -1.5    0.3
H     0.3   -0.3   -1.0
H     2.8   -0.1    0.9
H     2.7   -0.8   -2.0
H     3.0   -2.0   -0.7
H     4.2   -0.7   -1.1
H     2.0    1.6   -1.5
H     3.4    2.2    1.3
H     2.6    3.9   -1.3
