          15
 frame:         4240
C     1.5   -0.6    0.4
O     2.9   -0.2    0.2
C     3.0    1.2   -0.1
C     4.5    1.5   -0.1
O     5.2    1.1    1.1
C     5.2    0.8   -1.2
C     5.8    0.3   -2.2
H     1.5   -1.6    0.7
H     0.9   -0.4   -0.5
H     1.1    0.0    1.2
H     2.6    1.8    0.7
H     2.6    1.4   -1.0
H     4.7    2.6   -0.2
H     4.9    0.2    1.3
H     6.2   -0.2   -3.0
