          17
 frame:         4516
O     2.5   -1.0    1.2
C     1.5   -0.1    1.4
C     1.6    1.0    0.4
C     2.9    1.8    0.4
O     2.9    2.8   -0.6
C     4.0    3.6   -0.7
C     5.2    3.5    0.0
H     2.4   -1.7    1.9
H     1.6    0.4    2.5
H     0.5   -0.5    1.4
H     0.8    1.8    0.5
H     1.5    0.6   -0.6
H     3.8    1.1    0.2
H     3.1    2.2    1.4
H     3.9    4.3   -1.4
H     5.3    2.7    0.8
H     6.0    4.2   -0.2
