          19
 frame:         3469
C     2.0   -1.6   -0.4
C     1.7   -0.1   -0.2
C     2.9    0.7    0.1
C     3.7    0.4    1.4
C     2.8    0.6    2.7
C     3.6    1.4   -1.0
O     2.7    2.1   -0.1
H     1.1   -2.2   -0.6
H     2.4   -2.1    0.6
H     2.8   -1.8   -1.2
H     1.0   -0.0    0.7
H     1.2    0.3   -1.1
H     4.5    1.1    1.5
H     4.1   -0.6    1.4
H     2.4    1.6    2.8
H     3.5    0.4    3.6
H     2.0   -0.2    2.7
H     3.3    1.2   -2.0
H     4.7    1.6   -0.9
