          16
 frame:          518
C     2.1   -0.2    1.5
C     2.5    0.1    0.1
N     3.0    1.5   -0.1
C     2.1    2.6    0.1
C     4.4    1.7   -0.1
N     5.0    2.8   -0.1
H     1.7   -1.2    1.6
H     1.3    0.5    1.9
H     3.0   -0.1    2.2
H     1.6    0.0   -0.6
H     3.2   -0.6   -0.3
H     1.1    2.3   -0.1
H     2.4    3.4   -0.7
H     2.2    3.0    1.1
H     4.9    0.7   -0.3
H     4.4    3.6    0.1
