          15
 frame:         5353
C     0.9   -0.1    0.1
C     2.4   -0.1   -0.0
N     3.0   -1.3   -0.3
C     3.2    1.0    0.2
C     4.7    1.0    0.1
N     5.3    2.2    0.3
O     5.3   -0.0   -0.2
H     0.6    1.0    0.3
H     0.6   -0.8    0.8
H     0.5   -0.3   -0.9
H     2.4   -2.1   -0.6
H     4.0   -1.3   -0.4
H     2.7    2.0    0.4
H     4.8    2.9    0.8
H     6.3    2.1    0.4
