          15
 frame:         2792
C     1.4   -0.4   -1.0
N     2.8   -0.2   -0.8
N     3.3    1.0   -0.6
C     4.5    1.2   -0.1
C     5.4    0.0    0.3
C     5.0    2.5   -0.0
C     5.5    3.6    0.1
H     1.1   -1.4   -1.3
H     1.1    0.4   -1.7
H     0.8   -0.1   -0.0
H     3.3   -1.0   -0.3
H     4.9   -0.6    1.1
H     6.3    0.4    0.6
H     5.6   -0.7   -0.6
H     5.9    4.6    0.2
