          19
 frame:         1250
C     0.8    0.2    0.3
C     2.2    0.0    0.0
C     3.2    1.0    0.8
C     4.1   -0.2    1.1
C     2.9   -1.2    0.8
C     2.5    0.1   -1.4
C     3.0   -0.8   -2.3
H     0.6    0.3    1.4
H     0.1   -0.6   -0.1
H     0.4    1.2   -0.1
H     2.8    1.4    1.7
H     3.7    1.8    0.2
H     5.0   -0.3    0.4
H     4.6   -0.3    2.1
H     3.1   -2.1    0.2
H     2.4   -1.4    1.6
H     2.2    1.1   -1.9
H     3.4   -1.8   -1.9
H     3.1   -0.6   -3.3
