          15
 frame:         1874
C     1.0   -0.0    0.3
C     2.5   -0.0   -0.1
N     3.1    1.1   -0.4
C     4.5    0.6   -0.6
C     5.3    0.1    0.6
C     4.6   -0.9   -0.3
N     3.2   -1.2    0.1
H     0.5   -0.8   -0.2
H     0.6    0.9    0.0
H     0.9   -0.2    1.4
H     5.0    1.1   -1.4
H     6.3    0.1    0.5
H     4.8    0.3    1.6
H     5.1   -1.6   -0.9
H     2.8   -2.1   -0.2
