          19
 frame:         4222
C     3.2   -1.1    0.3
O     4.0   -0.0    0.3
C     3.5    1.2   -0.2
C     4.5    2.3   -0.1
C     3.9    3.6   -0.6
C     5.0    4.8   -0.5
O     3.5    3.5   -2.0
H     3.7   -2.0    0.7
H     2.8   -1.3   -0.8
H     2.3   -0.9    0.9
H     2.6    1.4    0.5
H     3.1    1.0   -1.2
H     5.4    2.0   -0.7
H     4.8    2.4    0.9
H     3.0    3.9   -0.1
H     5.9    4.5   -1.0
H     5.2    4.9    0.6
H     4.5    5.7   -0.8
H     4.3    3.4   -2.6
