          14
 frame:         5223
C     0.8   -0.2    1.7
C     1.5   -0.1    0.6
C     2.5    0.9    0.4
O     3.8    0.3    0.1
C     4.8    1.3   -0.2
C     4.6    2.0   -1.5
N     4.4    2.6   -2.5
H     0.0   -1.0    1.9
H     0.9    0.5    2.5
H     1.4   -0.8   -0.2
H     2.7    1.6    1.3
H     2.2    1.6   -0.5
H     5.8    0.7   -0.3
H     5.0    2.0    0.6
