          15
 frame:         1620
C     1.4    0.1    0.5
C     2.7   -0.1   -0.1
C     3.5    1.0   -0.8
C     4.1    0.4    0.4
C     4.9   -0.8    0.1
N     4.3   -1.8   -0.5
N     3.0   -1.4   -0.7
H     1.3    1.1    0.9
H     1.2   -0.6    1.3
H     0.6   -0.0   -0.2
H     3.1    2.0   -0.7
H     3.9    0.9   -1.8
H     4.2    1.0    1.3
H     6.0   -0.9    0.4
H     2.3   -2.1   -0.5
