          17
 frame:         3227
C     1.0   -0.1    0.1
C     2.5    0.1    0.1
C     3.1    1.2    0.8
C     4.5    0.7    1.2
C     4.3   -0.8    1.4
C     5.0   -1.7    2.0
O     3.1   -1.1    0.7
H     0.7   -1.0   -0.5
H     0.6    0.8   -0.5
H     0.7   -0.1    1.1
H     2.9    0.1   -1.0
H     2.5    1.4    1.8
H     3.1    2.2    0.3
H     5.2    0.9    0.4
H     4.9    1.2    2.2
H     4.7   -2.7    2.0
H     5.9   -1.4    2.6
