          17
 frame:         5357
C     2.1    0.1    0.8
C     3.5   -0.1    0.2
N     4.2    1.1    0.0
C     5.4    1.1   -0.4
C     6.2   -0.0   -0.9
N     6.0    2.4   -0.4
O     5.2    3.5   -0.1
H     1.5   -0.8    0.9
H     1.5    0.8    0.2
H     2.2    0.5    1.8
H     3.3   -0.6   -0.8
H     4.0   -0.9    0.8
H     5.7   -0.5   -1.8
H     6.3   -0.8   -0.1
H     7.2    0.3   -1.2
H     6.6    2.6   -1.2
H     4.3    2.9    0.1
