          14
 frame:         5081
C     1.0   -0.3   -0.3
C     2.4   -0.1   -0.1
C     3.1    1.1    0.0
C     2.4    2.5    0.1
O     2.5    3.1    1.4
C     4.5    1.1    0.1
N     5.7    1.2    0.2
H     0.7   -1.1    0.5
H     0.8   -0.8   -1.2
H     0.4    0.6   -0.1
H     3.1   -1.0   -0.2
H     1.3    2.4   -0.2
H     2.9    3.2   -0.6
H     2.2    2.4    2.1
