          17
 frame:         2299
C     1.0   -0.0   -0.1
C     2.5   -0.1   -0.0
C     3.0   -1.6   -0.0
C     3.2    1.0    0.0
N     4.6    1.0    0.1
C     5.4    2.1    0.2
N     5.1    3.4    0.2
H     0.7    1.0   -0.1
H     0.5   -0.5    0.7
H     0.6   -0.5   -1.0
H     2.6   -2.1    0.8
H     4.1   -1.6    0.1
H     2.7   -2.1   -0.9
H     2.8    1.9    0.0
H     5.1    0.1    0.1
H     6.5    1.9    0.3
H     4.1    3.5    0.1
