          15
 frame:         6417
N     3.2   -1.1   -0.4
C     2.6    0.1    0.1
O     1.4    0.0    0.5
N     3.4    1.2    0.2
C     2.8    2.5    0.3
C     4.0    3.1   -0.5
C     4.4    1.6   -0.7
H     4.2   -1.1   -0.3
H     2.7   -1.9   -0.2
H     2.6    2.9    1.3
H     1.8    2.6   -0.3
H     3.8    3.7   -1.4
H     4.7    3.6    0.2
H     4.3    1.3   -1.8
H     5.5    1.3   -0.4
