          12
 frame:         1169
O     0.8   -0.0    0.2
S     2.3   -0.0   -0.1
O     2.7    0.0   -1.5
C     3.2    1.2    0.9
C     4.2   -0.0    1.3
C     3.3   -1.2    0.8
H     2.6    1.6    1.7
H     3.7    2.0    0.3
H     5.1    0.0    0.8
H     4.4   -0.0    2.4
H     3.8   -1.9    0.2
H     2.7   -1.6    1.6
