          20
 frame:         2464
C     1.0    0.5    0.2
C     2.5    0.3   -0.0
N     3.2    1.6   -0.1
C     4.6    1.5   -0.3
C     5.3    2.8   -0.2
C     5.8    3.3    1.2
C     6.8    2.9    0.2
H     0.5   -0.5    0.2
H     0.6    1.1   -0.5
H     0.8    1.0    1.2
H     2.6   -0.2   -1.0
H     2.9   -0.4    0.7
H     3.0    2.1    0.8
H     4.8    1.0   -1.3
H     5.1    0.8    0.5
H     5.0    3.5   -0.9
H     5.6    2.7    2.0
H     5.7    4.4    1.3
H     7.4    3.6   -0.3
H     7.3    1.9    0.4
