          12
 frame:          721
C     0.9   -0.0    0.0
C     2.1   -0.0    0.0
C     3.5    0.0    0.0
C     4.3    1.0    0.9
O     5.2   -0.0    1.4
C     4.3   -1.0    0.9
H    -0.2   -0.0    0.1
H     3.9    0.1   -1.0
H     3.6    1.4    1.7
H     4.8    1.8    0.4
H     4.9   -1.8    0.3
H     3.7   -1.5    1.6
