          13
 frame:         6161
N     1.1    0.1    0.4
C     2.3    0.0    0.1
N     3.2    1.1   -0.1
C     4.4    0.8   -0.8
C     4.6   -0.7   -0.7
C     3.2   -1.2   -0.3
O     2.8   -2.3   -0.3
H     0.8   -0.9    0.5
H     2.8    2.0   -0.1
H     4.4    1.1   -1.9
H     5.2    1.4   -0.3
H     4.9   -1.2   -1.6
H     5.2   -1.0    0.2
