          12
 frame:         6727
O     1.8   -0.6   -0.8
C     2.2    0.3   -0.1
C     1.7    0.6    1.2
C     1.3    0.7    2.4
N     3.1    1.3   -0.7
C     4.1    1.9    0.2
C     3.0    2.7   -0.2
H     1.0    0.8    3.4
H     5.1    2.0   -0.2
H     4.0    1.6    1.3
H     2.2    2.9    0.5
H     3.1    3.4   -1.1
