          17
 frame:         4132
C     1.5    1.3   -0.7
O     2.8    0.9   -0.6
C     3.6    1.9    0.2
C     5.0    1.4    0.2
C     5.9    1.5   -1.0
C     6.8    2.4   -0.1
O     5.8    2.3    1.0
H     0.9    0.5   -1.3
H     1.4    2.3   -1.2
H     1.0    1.4    0.3
H     3.2    2.0    1.2
H     3.6    2.9   -0.3
H     5.0    0.4    0.7
H     5.5    2.1   -1.8
H     6.4    0.6   -1.4
H     7.8    1.9    0.2
H     7.0    3.4   -0.4
