          14
 frame:         5684
C     1.2    0.1   -0.4
N     2.6    0.2    0.0
C     3.5   -0.9    0.0
C     3.7   -1.5   -1.3
C     3.9   -2.0   -2.4
C     3.1    1.5    0.3
O     2.5    2.5    0.3
H     0.8    1.1   -0.4
H     0.7   -0.6    0.3
H     1.2   -0.3   -1.4
H     3.0   -1.7    0.7
H     4.5   -0.7    0.5
H     4.0   -2.4   -3.4
H     4.2    1.4    0.6
