          19
 frame:         3579
C     1.1    0.2    0.0
C     2.6   -0.1    0.0
C     3.0   -0.9    1.2
C     3.0   -0.9   -1.3
C     3.4    1.2   -0.0
C     3.9    1.9    1.1
O     4.8    1.3    0.2
H     0.8    0.8   -0.9
H     0.8    0.8    0.9
H     0.5   -0.7    0.0
H     2.6   -0.5    2.2
H     4.1   -1.0    1.3
H     2.6   -1.9    1.2
H     2.7   -0.3   -2.2
H     2.5   -1.8   -1.3
H     4.1   -1.1   -1.3
H     3.0    1.9   -0.9
H     3.9    1.5    2.1
H     4.0    3.0    1.1
