          15
 frame:         4079
C     0.9   -0.0    0.1
C     2.4   -0.0   -0.0
O     2.9   -0.7   -1.2
C     3.0    1.4    0.1
O     2.5    2.1    1.3
C     4.5    1.4   -0.0
C     5.7    1.4   -0.0
H     0.6    0.5    1.0
H     0.5   -1.0    0.0
H     0.5    0.6   -0.8
H     2.8   -0.6    0.8
H     2.3   -0.3   -2.0
H     2.6    2.0   -0.8
H     3.3    2.0    1.9
H     6.7    1.4   -0.0
