          13
 frame:          964
C     0.7    1.2   -0.3
O    -0.6    1.1   -0.9
C    -1.4    0.1   -0.3
C    -0.3   -0.9    0.3
N     0.7   -1.2   -0.7
C     1.0   -0.2    0.3
H     1.4    1.5   -1.1
H     0.7    1.9    0.5
H    -2.0    0.4    0.5
H    -2.0   -0.4   -1.1
H    -0.6   -1.6    1.1
H     1.2   -2.1   -0.4
H     1.7   -0.3    1.1
