          15
 frame:         5823
C     1.4   -0.1   -1.5
N     2.5   -0.4   -0.7
C     3.5    0.5   -0.4
O     3.5    1.6   -0.9
N     4.4    0.1    0.5
C     5.5    0.9    0.9
C     6.5    0.6    1.8
H     1.0   -1.0   -2.0
H     1.7    0.6   -2.2
H     0.6    0.4   -0.9
H     2.4   -1.2    0.0
H     4.4   -0.9    0.8
H     5.4    1.9    0.5
H     6.5   -0.4    2.2
H     7.2    1.3    2.1
