          15
 frame:         1907
C     0.9   -0.1    0.1
C     2.4    0.2   -0.1
N     2.9    1.4    0.7
C     3.9    1.1    1.4
N     4.4   -0.3    1.2
C     3.5   -1.3    1.8
C     3.4   -0.9    0.4
H     0.7   -0.9   -0.5
H     0.3    0.8   -0.2
H     0.7   -0.3    1.1
H     2.6    0.4   -1.1
H     4.4    1.7    2.1
H     4.0   -2.2    2.1
H     2.7   -0.9    2.5
H     3.8   -1.6   -0.4
