          15
 frame:         3259
C     1.0    0.0    0.2
C     2.3    0.0    0.0
C     3.2    1.3   -0.0
C     4.4    0.8   -0.8
O     4.5   -0.7   -0.4
C     3.2   -1.1   -0.1
C     3.0   -2.4    0.1
H     0.5   -0.9    0.2
H     0.4    0.9    0.2
H     3.5    1.6    1.0
H     2.7    2.1   -0.5
H     4.3    0.9   -1.9
H     5.4    1.2   -0.5
H     2.0   -2.8    0.4
H     3.8   -3.2   -0.1
