          14
 frame:          649
C     0.8    1.3   -0.6
C    -0.4    1.0    0.3
C    -1.4    0.0   -0.2
C    -0.7   -1.3    0.1
O     0.7   -1.1    0.0
C     0.9    0.3    0.5
H     0.7    1.0   -1.6
H     1.4    2.3   -0.5
H    -0.7    1.8    1.1
H    -2.3    0.1    0.4
H    -1.6    0.1   -1.2
H    -0.9   -1.7    1.1
H    -0.9   -2.1   -0.6
H     1.6    0.4    1.3
