          13
 frame:         6366
N     1.0    0.0    0.3
C     2.4   -0.0    0.0
N     3.0   -1.1   -0.3
C     3.1    1.3   -0.0
C     2.5    2.5   -0.2
C     4.6    1.2    0.1
O     5.3    2.2    0.2
H     0.7    0.8    1.0
H     0.6   -0.9    0.6
H     2.5   -1.9   -0.3
H     1.4    2.5   -0.3
H     3.1    3.4   -0.2
H     5.0    0.2    0.1
