          12
 frame:         6696
O     0.9    0.1   -0.5
C     2.1    0.1   -0.0
C     2.9    1.3   -0.0
C     3.6    2.2   -0.0
C     4.5    3.3    0.0
C     4.7    4.2   -1.2
N     3.9    4.7   -0.0
H     2.5   -0.8    0.4
H     5.5    3.2    0.6
H     4.0    4.0   -2.1
H     5.7    4.6   -1.4
H     4.5    5.3    0.5
