          15
 frame:         4409
O     2.8   -0.9   -0.6
C     2.3    0.2    0.1
C     3.4    1.3   -0.0
C     3.6    1.9   -1.4
C     3.0    3.2   -1.4
C     2.6    3.5   -0.1
O     2.9    2.4    0.8
H     2.1   -1.6   -0.6
H     2.1    0.0    1.1
H     1.4    0.6   -0.4
H     4.3    0.9    0.5
H     3.2    1.2   -2.2
H     4.7    1.9   -1.6
H     2.9    3.9   -2.2
H     2.2    4.3    0.4
