          15
 frame:         6386
N     0.8    0.2   -0.1
C     2.1    0.1    0.4
O     2.4   -0.8    1.2
C     3.1    1.2   -0.0
C     2.7    2.7   -0.1
N     3.3    2.9    1.3
C     4.1    1.6    1.1
H     0.5    1.1   -0.6
H     0.1   -0.4    0.2
H     3.6    0.8   -0.9
H     1.6    2.9   -0.1
H     3.2    3.2   -0.9
H     3.8    3.7    1.4
H     5.1    1.8    0.7
H     4.1    1.0    2.0
