          17
 frame:         4235
C     2.9   -0.9   -0.4
O     2.6    0.1    0.6
C     3.0    1.4    0.2
C     2.3    2.3    1.3
O     2.8    1.9    2.6
C     4.4    1.6    0.1
C     5.1    1.9   -1.0
H     2.6   -1.9   -0.0
H     4.0   -0.9   -0.7
H     2.3   -0.7   -1.3
H     2.5    1.7   -0.7
H     1.2    2.2    1.3
H     2.6    3.3    1.2
H     2.7    1.0    2.7
H     5.0    1.5    1.0
H     4.5    2.0   -2.0
H     6.1    2.0   -1.1
