          14
 frame:          793
C     1.3   -1.3   -0.3
C     2.3   -0.2   -0.1
C     1.7    1.2    0.1
O     0.5    1.4    0.0
C     2.5    2.4    0.4
C     3.9    2.4    0.5
H     1.9   -2.2   -0.4
H     0.8   -1.1   -1.2
H     0.6   -1.4    0.5
H     3.1   -0.1   -0.9
H     2.9   -0.4    0.8
H     2.0    3.3    0.5
H     4.5    1.4    0.4
H     4.5    3.3    0.7
