          12
 frame:         6589
O     1.2    0.1    0.6
C     2.3    0.0    0.2
N     3.2    0.9   -0.2
C     4.3   -0.0   -0.6
C     3.4   -1.1   -0.0
C     3.0   -2.2   -0.9
C     2.7   -3.1   -1.7
H     3.2    1.9   -0.3
H     4.5   -0.1   -1.6
H     5.2    0.1    0.0
H     3.7   -1.6    0.9
H     2.5   -3.9   -2.4
