          16
 frame:         5647
C     1.9   -0.5   -1.3
N     2.2    0.1    0.0
C     3.2    1.2   -0.0
C     2.6    2.6   -0.6
C     3.2    3.3    0.6
O     3.4    4.4    0.9
C     3.5    1.9    1.3
H     1.3   -1.3   -1.1
H     2.9   -0.8   -1.8
H     1.4    0.3   -1.9
H     2.5   -0.6    0.7
H     4.1    1.0   -0.6
H     1.5    2.6   -0.6
H     3.0    2.9   -1.6
H     4.5    1.8    1.8
H     2.7    1.7    2.1
