          20
 frame:         2493
C     1.0   -0.0   -0.2
C     2.5   -0.0   -0.1
N     3.0    1.4   -0.1
C     4.5    1.4    0.1
C     4.9    2.9    0.0
C     5.6    3.5    1.0
C     6.1    4.9    1.0
H     0.6   -1.1   -0.2
H     0.6    0.5   -1.1
H     0.5    0.5    0.7
H     2.9   -0.6   -0.9
H     2.8   -0.6    0.8
H     2.6    1.9    0.6
H     4.9    0.9   -0.8
H     4.8    0.9    1.0
H     4.7    3.4   -0.9
H     5.8    2.9    1.9
H     5.8    5.4    0.1
H     7.2    4.9    1.1
H     5.7    5.4    1.9
