          12
 frame:          119
C     1.0   -0.0    0.0
C     2.5   -0.0   -0.0
N     3.1   -0.7   -1.2
C     3.0    1.4   -0.0
C     3.4    2.5    0.0
H     0.6    0.5    0.9
H     0.6   -1.1    0.0
H     0.6    0.5   -0.9
H     2.9   -0.5    0.9
H     2.8   -0.3   -2.0
H     2.7   -1.7   -1.2
H     3.7    3.5    0.0
