          15
 frame:         6120
N     1.0    0.2   -0.3
C     2.4    0.1    0.2
C     3.2    1.3   -0.2
C     3.5    1.2   -1.7
O     4.4    0.1   -1.9
N     4.0   -1.1   -1.4
C     3.0   -1.1   -0.5
H     0.4    0.7    0.4
H     0.5   -0.8   -0.3
H     2.5   -0.1    1.3
H     2.5    2.2   -0.0
H     4.1    1.4    0.4
H     4.1    2.0   -2.1
H     2.6    1.1   -2.3
H     2.8   -2.1   -0.1
