          16
 frame:         6619
O     0.7    0.4    0.2
C     1.9    0.3    0.4
C     3.0    1.2   -0.1
C     2.5    2.7   -0.3
C     3.2    3.5    0.7
N     3.5    2.5    1.8
C     4.1    1.4    1.0
H     2.3   -0.7    0.8
H     3.4    0.8   -1.0
H     1.4    2.7   -0.2
H     2.7    3.0   -1.4
H     4.0    4.0    0.3
H     2.5    4.3    1.2
H     4.2    2.9    2.4
H     5.1    1.6    0.5
H     4.2    0.5    1.6
