          13
 frame:         4524
O     1.0    2.6    0.9
C     2.1    2.1    1.0
C     2.8    1.5   -0.1
O     4.2    1.2    0.2
C     5.0    2.4    0.1
C     6.4    2.2    0.5
C     7.5    2.0    0.8
H     2.6    1.9    2.0
H     2.7    2.1   -1.0
H     2.4    0.5   -0.3
H     4.5    3.2    0.8
H     4.9    2.9   -0.9
H     8.6    1.8    1.0
