          17
 frame:         2784
C     1.9    0.0    2.4
N     3.0   -0.1    1.8
N     3.9    0.9    1.8
C     4.9    1.0    0.7
C     5.9    2.1    0.8
C     7.0    1.1    0.3
C     6.0   -0.1    0.7
H     1.2   -0.8    2.4
H     1.6    1.0    3.0
H     3.5    1.9    2.1
H     4.3    1.0   -0.2
H     6.2    2.3    1.9
H     5.8    3.0    0.2
H     7.1    1.1   -0.8
H     8.0    1.1    0.7
H     5.9   -0.9    0.1
H     6.2   -0.4    1.7
