          16
 frame:          249
C     1.0    0.0    0.0
C     2.5   -0.0   -0.0
C     3.3   -1.1   -0.1
C     4.7   -0.8   -0.1
C     4.7    0.8   -0.3
C     3.3    1.2    0.1
H     0.6   -1.0   -0.0
H     0.6    0.6   -0.8
H     0.6    0.5    0.9
H     2.9   -2.1   -0.1
H     5.2   -1.0    0.9
H     5.3   -1.3   -0.8
H     4.9    1.0   -1.4
H     5.5    1.3    0.2
H     2.9    2.0   -0.6
H     3.3    1.7    1.1
