          16
 frame:         2593
C     1.0   -0.0    0.0
N     2.5    0.0    0.1
C     3.1    1.1    0.9
C     4.2    0.0    1.3
C     3.2   -1.0    0.9
C     3.6   -2.2    0.1
C     4.0   -3.2   -0.5
H     0.7   -0.9   -0.5
H     0.7    0.8   -0.5
H     0.6   -0.1    1.0
H     2.5    1.3    1.8
H     3.4    2.0    0.4
H     5.1    0.1    0.7
H     4.5    0.0    2.4
H     2.6   -1.4    1.8
H     4.3   -4.1   -1.0
