          16
 frame:         5577
C     0.9   -0.1    0.1
C     2.4   -0.2   -0.1
O     2.9    1.1    0.3
N     4.3    1.1    0.1
C     4.8    2.2    0.5
O     6.1    2.5    0.5
C     7.0    1.4    0.0
H     0.4   -1.1   -0.2
H     0.4    0.7   -0.6
H     0.6    0.1    1.1
H     2.7   -0.4   -1.1
H     2.8   -1.0    0.5
H     4.2    3.1    0.8
H     8.0    1.7    0.1
H     6.7    1.1   -1.0
H     6.8    0.5    0.7
