          12
 frame:         7171
O     1.5   -0.3   -1.0
C     2.6   -0.1   -0.1
C     3.0    1.3    0.1
C     2.3    2.4   -0.4
C     3.0    3.6   -0.0
N     4.1    3.5    0.6
S     4.4    1.8    0.9
H     1.2   -1.2   -1.0
H     3.5   -0.7   -0.4
H     2.4   -0.6    0.9
H     1.4    2.4   -0.9
H     2.6    4.6   -0.3
