          13
 frame:         4221
C     1.0   -0.1    0.1
O     2.4   -0.1    0.1
C     2.9    1.3    0.0
C     4.3    1.3    0.0
C     5.6    1.4   -0.0
C     7.0    1.4   -0.0
O     7.7    2.4   -0.0
H     0.7   -1.1    0.1
H     0.6    0.4   -0.9
H     0.6    0.5    0.9
H     2.5    1.9    0.9
H     2.5    1.8   -0.9
H     7.5    0.4    0.0
