          17
 frame:         1346
C     0.9    0.2   -0.1
C     2.1    0.1   -0.2
C     3.5    0.1   -0.4
C     4.2    1.2    0.4
C     5.8    1.1    0.3
C     6.7    1.7    1.3
C     6.5    0.2    1.2
H    -0.2    0.2   -0.0
H     3.8    0.1   -1.4
H     3.9   -0.9    0.0
H     4.0    1.1    1.5
H     3.9    2.2    0.0
H     6.1    1.2   -0.8
H     6.2    2.2    2.2
H     7.6    2.2    1.0
H     7.4   -0.3    0.8
H     6.0   -0.3    1.9
