          21
 frame:         2515
C     1.9    0.3   -1.8
C     3.2    0.2   -0.9
N     4.0    1.4   -1.1
C     5.2    1.5   -0.2
C     6.3    0.6   -0.7
C     5.6    3.0   -0.1
N     4.5    3.8    0.4
H     1.4   -0.6   -1.6
H     2.2    0.5   -2.8
H     1.3    1.1   -1.4
H     3.8   -0.7   -1.3
H     3.0    0.0    0.1
H     3.5    2.2   -0.9
H     5.0    1.2    0.8
H     6.6    0.9   -1.8
H     6.1   -0.4   -0.8
H     7.2    0.7   -0.1
H     5.9    3.3   -1.1
H     6.6    3.0    0.5
H     4.8    4.8    0.2
H     4.5    3.7    1.4
