          15
 frame:         1531
C    -0.9    0.0   -1.2
C    -0.6    1.0   -0.1
N    -1.4   -0.0    0.8
C    -0.6   -1.0   -0.1
C     0.9   -0.8    0.3
N     1.8   -0.0   -0.6
C     0.9    0.8    0.3
H    -1.9    0.0   -1.5
H    -0.2    0.0   -2.1
H    -1.0    2.0   -0.1
H    -1.0   -0.0    1.7
H    -1.0   -2.0   -0.1
H     1.3   -1.4    1.1
H     1.5    0.0   -1.5
H     1.3    1.4    1.1
