          12
 frame:          845
C     0.2   -0.9   -0.4
C     1.1    0.2   -0.1
O     2.1    0.5   -0.5
O     0.4    1.0    0.9
C     1.1    2.1    1.4
C     0.6    2.9    2.3
H    -0.8   -0.6   -0.8
H    -0.0   -1.6    0.4
H     0.7   -1.5   -1.2
H     2.1    2.3    0.9
H    -0.4    2.6    2.8
H     1.1    3.7    2.7
