          15
 frame:         2526
C     1.1   -0.5    0.1
C     2.5   -0.3    0.1
N     3.1    0.9   -0.0
C     4.5    1.1   -0.0
N     5.4    0.2   -0.0
C     5.0    2.5   -0.1
C     4.2    3.6   -0.1
H     0.7   -1.5    0.1
H     0.4    0.3    0.0
H     3.1   -1.2    0.1
H     2.5    1.7   -0.1
H     5.1   -0.8    0.0
H     6.0    2.6   -0.1
H     3.1    3.6   -0.1
H     4.7    4.6   -0.1
