          18
 frame:         2966
N     0.3   -0.0    0.3
C     1.8    0.0    0.0
C     2.4    1.4    0.2
C     1.7    2.4    0.8
C     3.8    1.6   -0.3
C     4.8    0.7    0.5
C     5.6   -0.2   -0.0
H     0.0   -1.0    0.3
H    -0.2    0.5   -0.4
H     2.0   -0.3   -1.0
H     2.3   -0.7    0.7
H     0.7    2.3    1.1
H     2.1    3.4    0.9
H     4.1    2.6   -0.1
H     3.9    1.3   -1.3
H     4.8    0.9    1.6
H     5.6   -0.4   -1.1
H     6.3   -0.8    0.6
