          20
 frame:         5937
C     1.3    2.2    0.5
O     2.7    2.2    0.8
C     3.4    1.4   -0.2
C     4.9    1.5    0.1
C     5.2    0.9    1.5
C     5.6    0.7   -1.0
N     5.3    2.9   -0.1
H     0.8    2.8    1.2
H     0.8    1.2    0.5
H     1.1    2.6   -0.5
H     3.2    1.8   -1.2
H     3.1    0.3   -0.2
H     4.7    1.5    2.3
H     6.3    1.0    1.7
H     4.9   -0.2    1.6
H     5.4    1.1   -2.0
H     5.3   -0.4   -0.9
H     6.7    0.7   -0.8
H     4.8    3.4    0.6
H     6.3    3.0    0.2
