          18
 frame:          517
C     0.9   -0.1   -0.0
C     2.5    0.1    0.1
N     3.2   -0.7   -1.0
C     2.9    1.6    0.0
C     2.3    2.4    1.1
N     4.4    1.7    0.1
H     0.4    0.3    0.8
H     0.7   -1.2   -0.1
H     0.6    0.4   -0.9
H     2.8   -0.3    1.0
H     2.8   -0.4   -1.9
H     3.1   -1.7   -0.9
H     2.6    2.0   -1.0
H     2.5    2.0    2.1
H     1.2    2.5    1.0
H     2.7    3.4    1.1
H     4.8    1.0   -0.5
H     4.7    1.6    1.1
