          14
 frame:         6309
N     1.0   -0.3    0.5
C     2.3   -0.1    0.2
C     3.0    1.1    0.1
C     2.2    2.4    0.4
O     0.9    2.5   -0.3
C     4.4    1.1   -0.3
O     5.1    2.1   -0.5
H     0.6   -1.2    0.5
H     0.4    0.5    0.5
H     2.9   -1.1    0.1
H     2.9    3.2    0.0
H     2.0    2.5    1.4
H     1.1    2.5   -1.2
H     4.8    0.0   -0.4
