          15
 frame:         4070
C     2.6   -1.1   -0.7
C     2.5   -0.1    0.3
O     1.9   -0.2    1.4
C     3.3    1.3    0.1
O     3.1    2.1    1.2
C     4.8    1.0   -0.1
C     5.4    1.2   -1.3
H     2.6   -0.7   -1.7
H     1.8   -1.8   -0.6
H     3.5   -1.7   -0.6
H     2.9    1.7   -0.8
H     2.5    1.6    1.8
H     5.3    0.6    0.7
H     4.9    1.6   -2.2
H     6.5    1.0   -1.4
