          17
 frame:         7034
C     0.9   -0.0   -0.0
C     2.5    0.0   -0.1
C     3.1   -0.8   -1.2
S     3.1    1.7   -0.0
C     2.6    2.5   -1.6
O     2.5    2.4    1.1
O     4.6    1.6   -0.1
H     0.6    0.6    0.8
H     0.6   -1.1    0.1
H     0.5    0.3   -1.0
H     2.9   -0.3    0.9
H     2.7   -0.5   -2.2
H     2.9   -1.9   -1.1
H     4.2   -0.7   -1.2
H     3.0    2.0   -2.4
H     3.0    3.5   -1.5
H     1.5    2.5   -1.6
