          19
 frame:         2331
C     3.1   -1.1    0.3
C     2.2    0.0    0.8
C     2.6    1.4    0.4
C     1.5    2.5    0.6
N     3.8    1.8    1.2
N     4.4    3.0    0.8
C     5.6    3.2    1.1
H     2.7   -2.1    0.6
H     4.1   -1.0    0.8
H     3.3   -1.0   -0.8
H     2.0   -0.0    1.9
H     1.2   -0.2    0.3
H     2.8    1.5   -0.7
H     1.1    2.4    1.7
H     0.6    2.2   -0.0
H     1.8    3.5    0.4
H     4.4    1.0    1.3
H     6.1    4.1    0.9
H     6.2    2.4    1.6
