          15
 frame:         3991
C     0.8   -0.2   -0.1
C     2.4   -0.0    0.1
O     3.1   -0.8   -0.9
C     2.7    1.4   -0.1
C     3.4    2.1    0.9
C     3.7    3.5    0.8
C     4.1    4.7    0.7
H     0.3    0.3    0.7
H     0.6   -1.3   -0.0
H     0.5    0.1   -1.1
H     2.7   -0.4    1.1
H     2.8   -0.6   -1.8
H     2.5    1.9   -1.0
H     3.6    1.6    1.8
H     4.4    5.7    0.7
