          19
 frame:         1302
C     1.0    0.0   -0.1
C     2.5   -0.0    0.1
C     3.1    1.1    0.9
C     4.5    0.7    1.3
C     4.3   -0.8    1.4
C     5.3   -1.7    1.9
C     3.0   -1.3    0.8
H     0.6   -0.8   -0.7
H     0.7    0.9   -0.7
H     0.5   -0.0    0.8
H     3.0    0.0   -0.9
H     2.4    1.3    1.8
H     3.0    2.1    0.4
H     5.2    0.9    0.5
H     4.8    1.1    2.2
H     5.1   -2.8    2.0
H     6.2   -1.3    2.4
H     3.1   -2.2    0.2
H     2.3   -1.5    1.7
