          14
 frame:         6638
O     1.4   -0.4   -1.0
C     2.5    0.6   -1.1
C     2.3    1.7   -0.1
C     2.9    1.6    1.2
N     3.5    2.5    0.2
C     3.5    3.8    0.4
O     3.8    4.4    1.4
H     1.5   -1.0   -1.7
H     2.4    1.1   -2.1
H     3.5    0.1   -1.0
H     1.3    2.2   -0.1
H     3.5    0.7    1.5
H     2.5    2.0    2.1
H     3.2    4.3   -0.6
