          16
 frame:          466
C     2.0   -0.3    1.4
C     2.5    0.1    0.0
C     3.0    1.5   -0.0
C     2.1    2.7    0.2
N     4.3    1.6   -0.3
N     4.8    2.9   -0.4
H     1.6   -1.3    1.4
H     1.2    0.4    1.8
H     2.8   -0.3    2.2
H     1.7   -0.0   -0.7
H     3.3   -0.6   -0.3
H     1.1    2.3    0.3
H     2.2    3.4   -0.7
H     2.4    3.2    1.1
H     5.8    2.9   -0.2
H     4.4    3.6    0.2
