          20
 frame:         2703
C     0.8    0.8   -0.2
N     2.2    0.5    0.0
C     3.0    1.6   -0.4
C     4.5    1.3   -0.3
C     5.5    2.4   -0.7
C     6.9    2.1   -0.6
C     7.8    2.1   -1.5
H     0.2   -0.1    0.1
H     0.5    1.1   -1.2
H     0.5    1.7    0.5
H     2.4   -0.3   -0.5
H     2.8    2.5    0.2
H     2.8    1.9   -1.5
H     4.8    0.4   -0.9
H     4.7    1.0    0.8
H     5.2    3.3   -0.1
H     5.3    2.7   -1.8
H     7.2    1.8    0.5
H     7.5    2.3   -2.6
H     8.9    1.8   -1.4
