          13
 frame:         6089
N     0.9   -0.1    0.0
C     2.3   -0.0    0.0
C     3.2    1.0    0.1
C     4.5    0.5    0.0
C     4.4   -0.9   -0.0
O     5.3   -1.9   -0.1
N     3.0   -1.2   -0.0
H     0.4    0.3   -0.8
H     0.5    0.2    0.9
H     2.9    2.1    0.1
H     5.4    1.0    0.0
H     6.2   -1.5   -0.1
H     2.6   -2.1   -0.1
