          20
 frame:         2699
C     0.9    0.7    0.1
N     2.3    0.5    0.1
C     3.0    1.8   -0.2
C     4.5    1.6   -0.2
C     5.3    2.8   -0.4
C     6.2    3.0   -1.4
C     6.9    4.3   -1.6
H     0.4   -0.3    0.2
H     0.5    1.1   -0.9
H     0.5    1.4    0.9
H     2.6   -0.2   -0.5
H     2.8    2.5    0.6
H     2.7    2.2   -1.2
H     4.8    0.8   -0.9
H     4.8    1.1    0.8
H     5.2    3.6    0.4
H     6.3    2.2   -2.1
H     6.7    5.1   -0.8
H     6.7    4.8   -2.6
H     8.0    4.1   -1.6
