          16
 frame:         5804
C     2.4    3.4    1.1
N     3.8    3.0    0.8
C     4.0    1.9    0.0
O     3.2    1.2   -0.5
C     5.5    1.6   -0.1
C     5.8    0.1   -0.2
C     6.4    2.5   -0.3
H     2.3    4.5    0.8
H     2.2    3.3    2.1
H     1.7    2.8    0.5
H     4.5    3.4    1.3
H     5.2   -0.4   -1.0
H     5.6   -0.4    0.7
H     6.9   -0.1   -0.4
H     6.1    3.6   -0.3
H     7.5    2.3   -0.5
