          17
 frame:         4305
O     1.0   -0.5    0.6
C     2.3   -0.0    0.2
C     2.7    1.2    1.0
C     4.2    0.6    0.9
C     3.6   -0.8    0.6
C     4.2   -1.7   -0.3
C     4.5   -3.0   -0.1
H     0.8   -1.3    0.0
H     2.3    0.2   -0.9
H     2.4    1.1    2.0
H     2.5    2.2    0.6
H     4.7    1.0   -0.0
H     4.9    0.7    1.8
H     3.4   -1.3    1.6
H     4.5   -1.3   -1.3
H     4.2   -3.5    0.8
H     4.9   -3.6   -0.9
