          19
 frame:         3002
N     2.3   -0.0    3.5
C     3.2   -0.2    2.3
C     3.8    1.2    2.0
N     4.7    1.1    0.8
C     5.4    2.3    0.4
C     6.7    1.5    0.2
C     6.1    0.5    1.1
H     1.9   -0.9    3.8
H     1.4    0.5    3.2
H     2.7   -0.6    1.4
H     4.0   -0.9    2.6
H     4.2    1.6    2.9
H     3.0    1.9    1.6
H     5.5    3.1    1.2
H     4.9    2.8   -0.5
H     6.8    1.1   -0.8
H     7.6    2.0    0.5
H     6.2   -0.6    0.9
H     6.4    0.6    2.2
