          20
 frame:         1932
C     3.3   -0.5    0.9
C     2.4    0.7    0.6
C     3.1    1.8   -0.1
C     3.2    1.7   -1.6
C     2.3    2.7   -1.0
N     4.3    2.4    0.5
C     4.0    3.1    1.7
H     2.7   -1.3    1.5
H     4.1   -0.2    1.6
H     3.6   -1.0    0.0
H     2.0    1.1    1.6
H     1.5    0.4    0.1
H     2.7    0.8   -2.1
H     4.1    2.0   -2.1
H     2.6    3.8   -1.1
H     1.2    2.6   -1.0
H     5.0    1.7    0.6
H     3.3    3.9    1.6
H     5.0    3.6    2.1
H     3.6    2.4    2.5
