          13
 frame:         3041
N     1.0   -0.1    0.1
N     2.3   -0.1    0.1
C     2.9    1.1    0.0
C     2.4    2.5    0.0
C     3.4    3.3   -0.0
C     4.7    2.5   -0.0
C     4.3    1.2   -0.0
H     0.6   -1.0   -0.1
H     0.4    0.7   -0.1
H     1.3    2.8    0.1
H     3.4    4.4   -0.0
H     5.7    2.9   -0.1
H     5.0    0.3   -0.0
