          14
 frame:          915
O     2.8   -1.0   -0.3
C     2.1    0.1    0.2
C     3.0    1.3    0.3
O     4.1    1.1    1.2
C     3.4    2.1   -0.9
C     2.5    2.7    0.2
H     2.3   -1.8   -0.1
H     1.6   -0.1    1.1
H     1.3    0.4   -0.6
H     4.5    0.2    1.0
H     2.9    1.9   -1.9
H     4.4    2.5   -1.0
H     3.0    3.4    0.9
H     1.5    2.9    0.1
