          14
 frame:          569
C     1.0   -0.1   -0.2
N     2.4    0.0    0.1
C     2.9    1.4    0.0
C     2.5    2.3    1.1
C     4.4    1.4   -0.0
N     5.6    1.3   -0.0
H     0.7   -1.1   -0.2
H     0.8    0.3   -1.2
H     0.4    0.4    0.5
H     3.0   -0.6   -0.4
H     2.6    1.9   -0.9
H     2.7    1.9    2.1
H     1.4    2.4    1.1
H     2.9    3.3    1.1
