          13
 frame:         1149
O     0.8    0.7   -1.0
N     2.2    0.7   -1.1
C     2.7    1.3   -0.1
C     4.2    1.3   -0.0
C     4.7    2.7   -0.1
C     5.4    3.4    0.8
H     0.5    0.2   -1.8
H     2.1    1.8    0.7
H     4.6    0.7   -0.8
H     4.5    0.9    0.9
H     4.5    3.2   -1.1
H     5.7    2.9    1.8
H     5.8    4.4    0.7
