          15
 frame:         4467
O     1.1   -0.4    0.1
C     2.4    0.3   -0.3
C     2.8   -0.4   -1.6
C     4.1   -0.0   -2.0
C     5.2    0.3   -2.4
C     2.2    1.8   -0.4
C     2.8    2.6    0.4
H     0.8    0.1    0.8
H     3.1    0.1    0.5
H     2.1   -0.1   -2.4
H     2.8   -1.5   -1.5
H     6.2    0.6   -2.7
H     1.4    2.1   -1.1
H     3.5    2.3    1.1
H     2.6    3.7    0.3
