          12
 frame:         6292
N     0.9   -0.0    0.1
C     2.3    0.0   -0.1
C     3.1    1.1    0.1
C     4.5    1.1   -0.1
O     5.2    2.1    0.0
C     5.1   -0.2   -0.4
C     5.7   -1.3   -0.6
H     0.4   -0.9   -0.1
H     0.4    0.8    0.2
H     2.8   -0.9   -0.3
H     2.6    2.1    0.3
H     6.2   -2.2   -0.8
