          19
 frame:         3635
C     0.9   -0.1   -0.1
C     2.4   -0.2   -0.0
C     2.8   -0.9    1.3
C     2.9   -1.1   -1.2
C     3.1    1.2   -0.1
C     2.8    1.9   -1.4
O     3.7    2.3   -2.2
H     0.5    0.2   -1.1
H     0.5    0.5    0.7
H     0.4   -1.1    0.1
H     2.5   -0.2    2.2
H     3.9   -1.0    1.4
H     2.4   -1.9    1.4
H     2.6   -0.7   -2.2
H     2.5   -2.1   -1.1
H     4.0   -1.2   -1.2
H     4.2    1.1   -0.0
H     2.7    1.8    0.7
H     1.7    2.2   -1.6
