          18
 frame:         1698
C     1.1    0.1   -0.4
C     2.5   -0.0    0.2
C     3.2   -1.3   -0.2
C     3.8   -1.2   -1.6
C     4.0   -0.0   -2.2
C     3.6    1.3   -1.5
N     3.3    1.2   -0.1
H     0.6    1.1   -0.1
H     0.4   -0.7   -0.0
H     1.1    0.1   -1.5
H     2.4   -0.0    1.3
H     2.4   -2.2   -0.2
H     3.9   -1.6    0.5
H     4.1   -2.1   -2.1
H     4.4    0.0   -3.2
H     4.5    2.0   -1.6
H     2.8    1.8   -2.0
H     4.2    1.1    0.5
