          18
 frame:         5882
C     2.0   -0.5   -1.4
O     2.2    0.1   -0.1
C     3.0    1.2   -0.1
C     2.4    2.6   -0.5
N     3.0    3.2    0.7
C     3.2    1.9    1.3
C     4.5    1.6    2.1
H     1.4   -1.4   -1.3
H     3.0   -0.7   -1.8
H     1.5    0.2   -2.0
H     4.0    1.0   -0.6
H     1.3    2.6   -0.5
H     2.8    3.0   -1.5
H     3.9    3.6    0.5
H     2.4    1.6    2.0
H     5.4    1.8    1.4
H     4.6    0.6    2.4
H     4.6    2.3    2.9
