          17
 frame:         4200
C     3.1    0.7   -2.0
O     4.1    1.2   -1.2
C     3.8    2.0   -0.1
C     2.5    2.3    0.2
C     5.0    2.5    0.6
C     5.7    1.3    1.3
O     5.9    3.2   -0.3
H     3.5    0.1   -2.8
H     2.5    1.6   -2.5
H     2.4    0.1   -1.4
H     1.6    1.9   -0.3
H     2.3    3.0    1.1
H     4.7    3.2    1.3
H     6.0    0.6    0.6
H     5.1    0.9    2.1
H     6.6    1.7    1.8
H     6.0    2.6   -1.1
