          13
 frame:         4513
O     1.1    0.0   -0.7
C     2.4   -0.2   -0.1
C     3.2    1.1   -0.2
C     4.5    1.0    0.4
O     5.0   -0.0    0.9
C     5.4    2.2    0.3
C     6.0    3.2    0.2
H     0.6   -0.8   -0.6
H     2.9   -1.1   -0.6
H     2.2   -0.5    1.0
H     2.6    1.9    0.2
H     3.3    1.4   -1.3
H     6.6    4.1    0.1
