          20
 frame:         5101
C     1.0   -0.0    0.2
C     2.5   -0.0   -0.1
C     3.1    1.3   -0.5
C     2.3    2.0   -1.7
O     2.9    2.2    0.6
C     4.6    1.2   -0.8
N     5.2    2.5   -0.8
H     0.7   -1.0    0.6
H     0.3    0.2   -0.6
H     0.8    0.7    1.0
H     2.6   -0.7   -1.0
H     3.1   -0.4    0.7
H     2.4    1.3   -2.6
H     2.8    3.0   -2.0
H     1.3    2.2   -1.4
H     3.7    2.8    0.5
H     4.7    0.6   -1.8
H     5.0    0.6   -0.0
H     5.2    3.0   -1.7
H     6.2    2.4   -0.6
