          17
 frame:         3302
C     0.8    0.1   -0.7
C     2.3    0.0   -0.3
C     2.6    0.0    1.2
C     2.6    1.4    1.8
O     3.7    2.2    1.4
C     3.2   -0.6   -1.2
O     3.2    0.8   -1.1
H     0.7    0.2   -1.8
H     0.4    1.0   -0.2
H     0.2   -0.7   -0.4
H     3.6   -0.4    1.4
H     1.8   -0.6    1.7
H     2.7    1.4    2.9
H     1.7    2.0    1.5
H     3.8    2.0    0.4
H     2.9   -1.0   -2.2
H     4.1   -1.1   -0.8
