          15
 frame:           84
C     2.1   -0.3    1.5
C     2.5    0.0    0.1
C     3.1    1.4   -0.1
C     2.1    2.6    0.1
C     4.4    1.6   -0.3
H     1.7   -1.3    1.5
H     1.3    0.4    1.9
H     2.9   -0.3    2.2
H     1.6   -0.1   -0.6
H     3.3   -0.7   -0.3
H     1.3    2.5   -0.6
H     2.6    3.5    0.0
H     1.7    2.6    1.2
H     5.1    0.8   -0.5
H     4.8    2.6   -0.4
