          19
 frame:         2655
C     3.0   -1.0   -0.6
N     2.4    0.2    0.0
C     1.7   -0.2    1.3
C     3.3    1.2    0.2
C     3.6    2.1   -1.0
C     2.8    2.7    0.2
N     3.4    3.7    1.0
H     3.4   -0.7   -1.6
H     2.2   -1.8   -0.8
H     3.8   -1.5   -0.0
H     0.9   -1.0    1.1
H     1.2    0.7    1.8
H     2.5   -0.6    2.0
H     4.2    1.0    0.9
H     3.0    1.9   -1.9
H     4.6    2.5   -1.1
H     1.7    2.8    0.0
H     4.4    3.7    1.0
H     3.1    3.6    2.0
