          19
 frame:         1892
C     0.9    0.1    0.1
C     2.4   -0.0   -0.0
N     3.2    1.0    0.7
C     4.2   -0.0    1.2
C     5.5    0.1    0.5
C     3.2   -1.1    0.7
N     3.8   -2.3    0.1
H     0.5   -0.8   -0.4
H     0.5    1.0   -0.3
H     0.6   -0.0    1.2
H     2.7   -0.0   -1.1
H     2.7    1.4    1.5
H     4.4    0.0    2.3
H     5.4    0.1   -0.6
H     6.2   -0.8    0.7
H     6.1    1.0    0.8
H     2.6   -1.5    1.6
H     4.2   -2.1   -0.8
H     3.0   -3.0   -0.1
