          14
 frame:          783
C     0.7    1.0    1.8
C     1.0    0.3    0.8
C     2.4    0.1    0.3
O     2.8   -1.2    0.1
C     4.0   -1.5   -0.4
C     5.0   -0.7   -0.7
H    -0.4    1.1    2.1
H     1.4    1.6    2.4
H     0.3   -0.3    0.2
H     3.1    0.6    1.0
H     2.5    0.6   -0.7
H     4.1   -2.6   -0.5
H     4.9    0.4   -0.6
H     5.9   -1.1   -1.1
