          14
 frame:         5236
C     0.9    0.2   -0.1
C     2.4    0.1   -0.1
C     2.9   -1.3   -0.3
O     2.3   -2.1   -1.3
C     3.1    1.1    0.1
C     4.6    1.1    0.1
N     5.7    1.1    0.2
H     0.5    1.2    0.0
H     0.4   -0.5    0.6
H     0.5   -0.1   -1.1
H     2.9   -1.9    0.7
H     4.0   -1.2   -0.5
H     1.5   -2.5   -0.9
H     2.7    2.1    0.3
