          13
 frame:         6322
N     1.9   -0.3    1.4
C     2.4    0.1    0.1
C     2.9    1.5    0.0
N     2.2    2.5    0.1
O     0.8    2.2    0.2
C     4.3    1.7   -0.1
C     5.5    1.8   -0.1
H     1.7   -1.3    1.4
H     1.1    0.2    1.6
H     1.7   -0.0   -0.8
H     3.3   -0.6   -0.2
H     0.4    3.0    0.2
H     6.6    1.9   -0.2
