          14
 frame:         5280
C     2.9    0.1    1.4
C     3.6    0.3    0.3
C     3.4    1.4   -0.6
O     2.5    2.3   -0.5
N     4.3    1.5   -1.7
C     5.8    1.7   -1.5
C     4.9    2.7   -2.2
H     3.0   -0.7    2.0
H     2.1    0.8    1.6
H     4.4   -0.4    0.0
H     6.5    1.1   -2.1
H     6.1    2.0   -0.5
H     4.6    3.6   -1.7
H     4.9    2.8   -3.3
