          14
 frame:         5596
C     1.1   -0.0   -0.2
N     2.5   -0.0    0.1
C     3.3   -1.2    0.2
C     4.6   -0.8    0.4
C     4.7    0.6    0.5
C     3.3    1.1    0.2
O     2.9    2.3    0.2
H     0.8    1.1   -0.2
H     0.5   -0.5    0.7
H     0.8   -0.5   -1.1
H     2.9   -2.1    0.1
H     5.4   -1.6    0.6
H     5.1    1.0    1.4
H     5.4    1.1   -0.3
