          20
 frame:         2639
C     2.0   -0.6   -1.3
N     2.2    0.1    0.0
C     3.1    1.2   -0.0
C     2.6    2.5   -0.6
C     3.2    3.3    0.6
C     4.6    4.0    0.3
C     3.4    1.9    1.3
H     1.4   -1.4   -1.2
H     3.0   -0.9   -1.8
H     1.5    0.1   -2.0
H     2.6   -0.6    0.7
H     4.1    0.9   -0.6
H     1.5    2.5   -0.5
H     2.9    2.9   -1.6
H     2.6    4.0    1.1
H     5.2    3.3   -0.3
H     5.1    4.3    1.2
H     4.4    4.8   -0.4
H     4.4    1.7    1.8
H     2.6    1.7    2.0
