          19
 frame:         3850
C     3.0   -0.8   -1.3
C     2.5   -0.1   -0.0
C     3.1    1.3    0.1
O     2.4    2.0    1.2
C     4.6    1.4    0.3
C     5.5    1.6   -0.8
C     5.3    2.7    0.2
H     2.5   -1.8   -1.4
H     4.1   -1.0   -1.2
H     2.8   -0.3   -2.2
H     2.8   -0.7    0.9
H     1.4    0.0   -0.1
H     2.8    1.9   -0.8
H     2.7    1.6    2.0
H     5.0    0.7    1.1
H     5.1    1.8   -1.8
H     6.5    1.1   -0.9
H     6.2    2.9    0.9
H     4.8    3.5   -0.0
