          15
 frame:         1581
C    -1.6    0.7   -0.1
C    -1.3   -0.9   -0.3
C    -0.2   -1.3    0.6
N     1.1   -0.9    0.4
N     1.4   -0.1   -0.7
C     0.8    1.0   -0.8
C    -0.3    1.5    0.1
H    -2.2    1.0   -1.0
H    -2.3    0.8    0.8
H    -1.0   -1.0   -1.3
H    -2.2   -1.5   -0.1
H    -0.3   -1.9    1.5
H     1.1    1.6   -1.7
H     0.0    1.4    1.1
H    -0.5    2.6   -0.1
