          13
 frame:         2987
N     0.9    0.1   -0.2
C     2.3    0.0   -0.1
C     2.9   -1.3   -0.4
C     2.2   -2.4   -0.8
C     3.1    1.1    0.1
C     4.5    1.1   -0.0
N     5.6    1.1   -0.1
H     0.5    1.0    0.2
H     0.4   -0.7    0.1
H     3.9   -1.3   -0.2
H     1.1   -2.4   -1.0
H     2.7   -3.3   -0.9
H     2.6    2.1    0.3
