          14
 frame:         6348
N     0.8    0.2    0.7
C     2.2   -0.3    0.5
C     3.0    0.6   -0.4
O     2.5    1.4   -1.2
O     4.3    0.3   -0.3
C     5.2    1.0   -1.1
C     6.5    0.7   -1.1
H     0.2   -0.6    0.9
H     0.5    0.7   -0.1
H     2.2   -1.4    0.1
H     2.7   -0.4    1.5
H     4.7    1.7   -1.8
H     6.9    0.0   -0.4
H     7.2    1.3   -1.8
