          15
 frame:         5248
C     0.8   -0.1   -0.1
C     2.3   -0.3    0.0
C     2.9   -1.5   -0.0
O     2.9    0.9    0.3
C     4.2    1.0   -0.0
N     4.9    1.8    0.7
N     6.2    2.1    0.3
H     0.5    0.5   -0.9
H     0.4    0.4    0.8
H     0.3   -1.1   -0.2
H     2.4   -2.4   -0.2
H     4.0   -1.6    0.1
H     4.5    0.5   -0.9
H     6.8    2.3    1.1
H     6.6    1.3   -0.3
