          16
 frame:          909
O     2.3   -0.4   -1.4
C     2.4    0.0   -0.0
C     3.1    1.3    0.0
C     2.5    2.6   -0.5
C     3.1    3.4    0.6
C     3.3    2.1    1.4
H     1.8   -1.2   -1.4
H     2.9   -0.7    0.6
H     1.4    0.2    0.4
H     4.1    1.2   -0.5
H     1.4    2.6   -0.5
H     2.7    3.0   -1.6
H     4.0    3.9    0.4
H     2.5    4.2    1.1
H     4.2    1.9    1.9
H     2.4    1.8    2.0
