          13
 frame:         4386
O     0.8    0.5    0.5
C     1.9    0.2    0.3
C     3.0    1.2   -0.1
C     2.6    2.7   -0.3
C     3.3    3.1    1.0
C     3.9    1.7    1.1
O     4.7    1.1    1.8
H     2.3   -0.8    0.5
H     3.6    0.7   -0.9
H     1.5    2.8   -0.3
H     3.0    3.1   -1.2
H     4.1    3.9    0.9
H     2.7    3.3    1.9
