          18
 frame:         2704
C     0.6    0.4    0.1
N     2.0    0.1    0.3
C     2.9    1.1   -0.1
C     4.3    0.8    0.1
C     5.3    1.9   -0.4
C     5.3    2.2   -1.8
C     5.3    2.4   -3.0
H    -0.0   -0.5    0.4
H     0.3    0.6   -0.9
H     0.3    1.2    0.8
H     2.2   -0.8   -0.2
H     2.6    2.0    0.4
H     2.7    1.4   -1.2
H     4.6   -0.1   -0.5
H     4.5    0.6    1.1
H     6.3    1.6   -0.1
H     5.1    2.9    0.2
H     5.3    2.6   -4.1
