          19
 frame:         2889
N     2.2   -0.5   -1.5
C     2.4   -0.0   -0.1
C     3.2    1.3   -0.0
C     2.5    2.6   -0.6
C     3.2    3.4    0.6
C     3.4    2.0    1.4
N     4.5    1.9    2.2
H     1.6   -1.3   -1.5
H     3.1   -0.7   -1.9
H     2.9   -0.8    0.6
H     1.4    0.1    0.4
H     4.2    1.2   -0.5
H     1.4    2.6   -0.5
H     2.7    2.9   -1.6
H     4.2    3.8    0.3
H     2.6    4.2    1.1
H     2.5    1.8    2.0
H     5.4    1.9    1.6
H     4.5    0.9    2.6
