          16
 frame:         5852
C     1.4    2.1    1.1
N     2.6    2.1    0.6
O     3.3    0.9    0.7
C     4.6    1.1    0.2
C     5.8    1.6    1.1
C     6.7    0.5    0.5
C     5.4   -0.3    0.1
H     0.8    2.9    1.1
H     1.1    1.2    1.7
H     4.5    1.6   -0.8
H     5.5    1.4    2.1
H     6.0    2.7    0.9
H     7.2    0.9   -0.4
H     7.4   -0.0    1.1
H     5.3   -0.8   -0.9
H     5.1   -1.0    0.8
