          15
 frame:         3947
C     0.9   -0.1   -0.1
C     2.0    0.7   -0.8
O     2.0    0.7   -2.1
C     3.0    1.4   -0.0
C     4.4    1.6   -0.6
C     3.5    2.8   -0.5
O     3.6    3.7    0.5
H     0.4    0.6    0.6
H     1.4   -0.9    0.6
H     0.2   -0.6   -0.8
H     3.0    1.3    1.1
H     4.6    1.2   -1.6
H     5.2    1.6    0.1
H     3.0    3.1   -1.4
H     4.4    4.3    0.2
