          15
 frame:         1318
C     0.9    0.1    0.0
C     2.2   -0.0   -0.0
C     3.6   -0.1   -0.0
C     4.4   -1.1   -0.1
C     5.8   -0.8   -0.1
C     5.8    0.7   -0.3
C     4.4    1.2    0.1
H    -0.1    0.1    0.1
H     4.0   -2.2   -0.1
H     6.3   -1.0    0.9
H     6.4   -1.3   -0.8
H     6.0    0.9   -1.4
H     6.6    1.3    0.2
H     4.0    2.0   -0.6
H     4.4    1.6    1.1
