          12
 frame:          822
C     2.9   -1.3   -0.2
C     2.3   -0.1    0.0
O     2.9    1.1    0.2
C     4.3    1.1   -0.0
C     4.9    2.5    0.2
C     5.3    3.6    0.3
H     2.2   -2.1   -0.3
H     3.9   -1.4   -0.4
H     1.2    0.0    0.2
H     4.6    0.8   -1.0
H     4.8    0.5    0.7
H     5.8    4.6    0.4
