          20
 frame:         5062
C     2.8   -0.9   -0.6
C     2.8   -0.0    0.7
C     3.8    1.1    0.7
C     3.6    2.1    1.9
N     3.8    1.4    3.2
C     5.3    0.7    0.7
O     5.6   -0.2    1.8
H     2.0   -1.6   -0.6
H     3.8   -1.4   -0.7
H     2.7   -0.2   -1.5
H     3.0   -0.7    1.6
H     1.8    0.4    0.8
H     3.6    1.7   -0.2
H     2.5    2.5    1.8
H     4.3    2.9    1.8
H     3.1    0.8    3.4
H     3.9    2.1    3.9
H     5.9    1.6    0.6
H     5.5    0.1   -0.3
H     5.2    0.3    2.5
