          16
 frame:          498
C     1.8   -0.9    1.0
C     2.8   -0.4   -0.0
C     2.9    1.1   -0.1
N     3.9    1.8    0.3
N     3.9    3.1    0.3
C     5.2    3.8    0.1
H     1.8   -2.0    1.0
H     0.8   -0.6    0.8
H     2.1   -0.6    2.0
H     2.6   -0.8   -1.0
H     3.9   -0.7    0.2
H     1.9    1.6   -0.3
H     3.1    3.5   -0.2
H     5.9    3.4    0.8
H     5.0    4.9    0.3
H     5.5    3.7   -0.9
