          15
 frame:         6377
N     1.0    2.8    2.1
C     2.1    2.5    1.6
N     3.0    3.5    1.1
O     3.7    3.1   -0.1
C     5.0    3.6    0.1
C     5.8    3.7   -1.2
C     5.4    5.0   -0.4
H     0.6    1.9    2.5
H     2.6    1.5    1.5
H     2.4    4.4    0.9
H     5.6    3.1    0.9
H     5.2    3.6   -2.1
H     6.8    3.4   -1.3
H     6.2    5.5    0.1
H     4.6    5.6   -0.8
