          17
 frame:         2426
C     0.7    0.2    1.1
C     1.4    0.7   -0.1
C     2.9    1.1    0.2
N     3.2    2.3    0.3
N     3.8    0.1    0.4
C     3.7   -1.3    0.2
C     4.7   -2.1    0.4
H    -0.4   -0.1    0.8
H     0.6    1.0    1.9
H     1.1   -0.7    1.6
H     0.9    1.5   -0.6
H     1.4   -0.1   -0.9
H     2.5    3.0    0.2
H     4.7    0.5    0.6
H     2.7   -1.6    0.0
H     5.7   -1.8    0.7
H     4.5   -3.2    0.3
