          17
 frame:         5441
C     1.2    0.4   -0.1
C     2.7    0.3   -0.1
N     3.4    1.4   -0.1
O     4.8    1.1   -0.0
C     5.5    2.4    0.0
C     7.0    2.0    0.0
N     7.8    3.3    0.1
H     0.9   -0.2   -1.0
H     0.9    1.4   -0.2
H     0.8   -0.1    0.7
H     3.2   -0.7    0.0
H     5.2    2.9    0.9
H     5.3    2.9   -0.9
H     7.2    1.4   -0.8
H     7.2    1.4    0.9
H     7.8    3.7   -0.8
H     8.8    3.0    0.3
