          13
 frame:         4028
C     2.2   -1.0   -0.5
C     3.5   -0.3   -0.0
O     4.5   -0.9    0.4
C     3.5    1.2   -0.2
C     4.6    1.9    0.2
C     4.7    3.4    0.0
O     3.7    4.1   -0.3
H     1.4   -0.6    0.1
H     2.3   -2.1   -0.3
H     2.0   -0.8   -1.5
H     2.6    1.7   -0.6
H     5.5    1.4    0.5
H     5.6    3.9    0.3
