          15
 frame:         3441
C     0.9   -0.1   -0.2
C     2.5    0.0    0.0
O     3.1    0.2   -1.3
C     3.0   -1.2    0.8
O     4.0   -0.8    1.8
C     3.8    0.6    1.9
C     2.9    1.1    1.0
H     0.4   -0.2    0.7
H     0.7   -0.9   -0.9
H     0.6    0.9   -0.7
H     4.0    0.5   -1.1
H     3.5   -1.9    0.1
H     2.2   -1.8    1.3
H     4.4    1.0    2.6
H     2.6    2.1    0.9
