          14
 frame:          672
C     0.9   -0.0    0.1
C     2.4    0.1    0.0
C     3.2    1.1    0.9
C     4.2   -0.0    1.3
C     3.2   -1.0    0.8
O     3.1   -2.2    0.9
H     0.6   -0.9   -0.4
H     0.5    0.9   -0.4
H     0.6   -0.0    1.1
H     2.8    0.1   -1.0
H     2.6    1.5    1.7
H     3.7    1.9    0.3
H     5.2   -0.0    0.8
H     4.4   -0.1    2.4
