          13
 frame:          431
C     0.9    0.1    0.2
C     2.4   -0.1    0.0
C     2.9   -1.4   -0.1
C     3.3    1.1   -0.0
C     3.2    1.9    1.2
N     3.1    2.6    2.1
H     0.7    0.7    1.1
H     0.4   -0.8    0.2
H     0.6    0.8   -0.6
H     2.3   -2.2   -0.1
H     4.0   -1.5   -0.2
H     3.0    1.7   -0.9
H     4.4    0.8   -0.2
