          17
 frame:         4337
O     1.0    0.1   -0.2
C     2.4   -0.1    0.0
C     3.0    1.1    0.8
C     4.3    0.7    1.3
C     4.2   -0.8    1.4
C     5.2   -1.7    1.9
C     2.9   -1.3    0.8
H     0.7   -0.6   -0.8
H     2.9   -0.1   -1.0
H     2.3    1.3    1.7
H     3.0    2.1    0.2
H     5.1    0.9    0.6
H     4.6    1.1    2.3
H     5.0   -2.8    1.9
H     6.1   -1.3    2.4
H     3.0   -2.2    0.2
H     2.1   -1.4    1.6
