          12
 frame:         6907
C     1.0   -0.0   -0.0
C     2.5    0.1    0.0
C     3.3    1.2    0.0
C     4.6    0.7    0.0
Cl    6.1    1.6    0.0
C     4.5   -0.7    0.0
O     3.2   -1.1    0.0
H     0.5    0.9   -0.0
H     0.6   -0.6    0.9
H     0.6   -0.6   -0.9
H     3.0    2.2    0.0
H     5.3   -1.5    0.0
