          16
 frame:         1732
C     0.9   -0.0    0.2
C     2.4    0.0   -0.0
C     3.2    1.1    0.8
C     4.2   -0.0    1.2
N     3.2   -1.0    0.8
C     2.8    0.1   -1.4
C     3.1    0.0   -2.6
H     0.7   -0.1    1.2
H     0.5   -0.9   -0.3
H     0.4    0.8   -0.3
H     2.6    1.4    1.7
H     3.6    2.0    0.3
H     5.1    0.0    0.6
H     4.5   -0.1    2.2
H     3.5   -1.8    0.2
H     3.4    0.0   -3.6
