          13
 frame:          471
C     4.7   -2.1   -0.7
C     4.2   -1.2   -0.3
C     3.5    0.0    0.3
N     4.4    1.2    0.2
C     4.4    1.9   -1.1
C     3.7    2.5    0.1
H     5.2   -3.0   -1.1
H     3.3   -0.1    1.3
H     2.6    0.2   -0.3
H     3.8    1.6   -1.9
H     5.4    2.4   -1.4
H     4.2    3.3    0.7
H     2.6    2.5    0.1
