          17
 frame:         2958
N     2.3   -0.5    1.3
C     2.1    0.1   -0.0
C     2.9    1.4   -0.1
C     2.2    2.5   -0.3
C     4.3    1.3    0.1
C     5.3    1.6   -1.1
N     5.1    2.6   -0.1
H     1.9   -1.5    1.4
H     1.8    0.0    2.0
H     1.1    0.2   -0.3
H     2.6   -0.6   -0.7
H     1.1    2.5   -0.5
H     2.7    3.5   -0.4
H     4.7    0.6    0.8
H     4.8    1.8   -2.1
H     6.2    1.0   -1.1
H     5.9    2.6    0.6
