          15
 frame:         4270
O     1.1    0.0    0.1
C     2.3    0.0    0.1
C     3.5    1.1    0.0
C     4.1    0.0   -1.0
C     3.4   -1.1   -0.0
C     4.2   -0.8    1.3
C     4.2    0.7    1.3
H     3.3    2.1   -0.2
H     5.2    0.0   -1.0
H     3.6    0.1   -2.0
H     3.2   -2.1   -0.4
H     3.7   -1.3    2.1
H     5.2   -1.3    1.2
H     5.2    1.1    1.3
H     3.7    1.1    2.2
