          14
 frame:           95
C     0.9   -0.0    0.2
C     2.4    0.0   -0.1
C     3.2    1.1    0.7
N     3.6   -0.1    1.6
C     3.3   -1.1    0.6
H     0.4   -0.9   -0.2
H     0.4    0.9   -0.1
H     0.8   -0.1    1.3
H     2.5    0.1   -1.2
H     2.7    1.9    1.2
H     4.1    1.5    0.1
H     4.6   -0.1    1.9
H     4.1   -1.4   -0.0
H     2.7   -1.9    1.0
