          12
 frame:         6517
O     1.3   -0.1    1.0
C     2.3   -0.0    0.4
C     3.3    1.1   -0.1
C     4.2   -0.0   -0.7
N     3.2   -1.0   -0.1
C     4.3    0.0   -2.1
C     4.5   -0.0   -3.3
H     3.7    1.7    0.7
H     2.8    1.8   -0.8
H     5.2   -0.1   -0.2
H     3.1   -2.0   -0.3
H     4.6    0.0   -4.4
