          15
 frame:         6639
O     2.2   -0.8    0.2
C     1.9    0.6    0.1
C     3.1    1.3   -0.1
C     3.8    1.5   -1.5
N     3.0    2.6   -0.8
N     4.0    3.6   -0.2
C     3.5    4.8   -0.2
H     1.3   -1.3    0.4
H     1.3    1.0    0.9
H     1.2    0.7   -0.8
H     3.8    1.3    0.7
H     3.3    1.1   -2.4
H     4.8    1.6   -1.5
H     4.2    5.5    0.2
H     2.5    5.0   -0.7
