          13
 frame:         1385
C     1.0   -0.2    0.1
C     2.5   -0.1    0.1
C     3.1    1.1   -0.0
C     2.5    2.4   -0.1
C     1.9    3.4   -0.2
C     4.5    1.1    0.0
C     5.8    1.2    0.0
H     0.7   -0.9   -0.7
H     0.5    0.7   -0.0
H     0.6   -0.7    1.0
H     3.1   -1.0    0.2
H     1.4    4.4   -0.3
H     6.8    1.2    0.0
