          18
 frame:         2830
N     1.0    0.1    0.1
C     2.5    0.0    0.0
C     3.0   -1.1    0.9
C     3.9   -0.3    1.9
C     4.5    0.8    0.9
C     3.1    1.2    0.8
C     2.9    0.9    2.2
H     0.6   -0.8   -0.3
H     0.6    0.8   -0.5
H     2.9   -0.0   -1.0
H     3.7   -1.8    0.3
H     2.2   -1.7    1.4
H     4.4   -0.8    2.7
H     5.1    0.4    0.1
H     5.2    1.5    1.5
H     2.9    2.2    0.3
H     3.3    1.6    2.9
H     1.9    0.6    2.6
