          16
 frame:         4642
C     0.9    0.0    0.1
C     2.5    0.1   -0.0
C     3.2    1.1    0.9
C     4.2   -0.1    1.2
N     3.2   -1.1    0.6
C     5.5   -0.0    0.5
O     5.8   -0.7   -0.5
H     0.5   -0.8   -0.5
H     0.5    0.9   -0.3
H     0.6   -0.1    1.1
H     2.8    0.2   -1.1
H     2.6    1.4    1.8
H     3.7    1.9    0.5
H     4.4   -0.3    2.3
H     3.6   -1.7   -0.1
H     6.2    0.7    0.9
