          12
 frame:         7079
C     0.9   -0.0   -0.1
N     2.3    0.0   -0.1
S     3.2    1.5   -0.4
C     4.7    0.6   -0.2
C     4.5   -0.7    0.1
C     3.1   -1.1    0.2
O     2.7   -2.2    0.4
H     0.5    0.6    0.7
H     0.6   -1.1    0.2
H     0.5    0.2   -1.0
H     5.6    1.2   -0.3
H     5.3   -1.4    0.3
