          16
 frame:         5911
C     1.8    0.2   -0.5
O     3.1    0.4   -0.0
C     3.6    1.7   -0.2
C     3.1    2.7   -0.8
C     5.0    1.6    0.3
C     6.2    1.6   -0.6
N     5.8    2.9    0.2
H     1.5   -0.8   -0.3
H     1.7    0.4   -1.6
H     1.1    0.9    0.0
H     2.1    2.7   -1.2
H     3.6    3.6   -0.8
H     5.1    1.1    1.3
H     6.1    1.7   -1.6
H     7.1    1.1   -0.2
H     6.4    3.0    1.0
