          16
 frame:         5387
C     0.9   -0.1    0.0
C     2.5   -0.1   -0.1
N     3.0   -0.7   -1.3
C     3.0    1.4   -0.0
O     2.5    2.1    1.1
C     4.5    1.4    0.0
C     5.7    1.4    0.1
H     0.6    0.4    1.0
H     0.6   -1.1    0.0
H     0.5    0.5   -0.8
H     2.9   -0.6    0.8
H     2.5   -0.4   -2.1
H     2.9   -1.7   -1.3
H     2.7    1.9   -0.9
H     3.1    2.0    1.8
H     6.8    1.5    0.2
