          16
 frame:         4899
C     1.0    0.0    0.0
C     2.5   -0.1   -0.1
O     2.8   -1.2   -1.0
C     3.3   -0.7   -2.1
C     3.4    0.7   -2.2
C     3.1    1.2   -0.8
N     4.3    1.8   -0.2
H     0.7    0.8    0.7
H     0.6   -0.9    0.4
H     0.5    0.2   -0.9
H     3.0   -0.2    0.9
H     3.5   -1.4   -2.9
H     3.8    1.3   -3.0
H     2.3    2.0   -0.8
H     5.0    1.1   -0.1
H     4.1    2.1    0.8
