          17
 frame:         5715
C     1.7   -0.3    1.1
N     3.1    0.2    0.7
C     3.0    1.6    0.2
C     2.5    2.5    1.2
C     4.5    2.0   -0.1
N     5.5    1.3    0.5
O     4.7    3.0   -0.9
H     1.8   -1.4    1.3
H     0.9   -0.2    0.3
H     1.4    0.1    2.0
H     3.4   -0.4   -0.0
H     2.5    1.7   -0.7
H     3.0    2.4    2.2
H     1.4    2.4    1.4
H     2.6    3.6    0.9
H     5.2    0.6    1.2
H     6.4    1.6    0.4
