          18
 frame:         5673
C     1.4   -0.3   -0.1
N     2.9   -0.0   -0.3
C     3.3    1.2    0.4
C     4.8    1.2    0.3
O     5.5    0.1    0.8
C     5.5    2.0   -0.8
C     5.6    2.5    0.6
H     1.2   -1.2   -0.7
H     0.8    0.5   -0.3
H     1.3   -0.6    1.0
H     3.0    0.1   -1.3
H     3.1    1.0    1.5
H     2.9    2.1    0.1
H     4.9   -0.7    0.4
H     4.8    2.6   -1.5
H     6.4    1.6   -1.3
H     6.5    2.4    1.1
H     5.0    3.4    0.9
