          12
 frame:          857
C     1.1   -0.1   -0.2
O     2.5   -0.1   -0.2
C     3.0    1.2    0.0
C     2.4    2.3    0.2
C     4.5    1.2   -0.0
C     5.7    1.1   -0.0
H     0.8   -1.2   -0.4
H     0.7    0.5   -1.0
H     0.7    0.2    0.8
H     1.3    2.4    0.2
H     2.9    3.3    0.3
H     6.8    1.1   -0.0
