          15
 frame:         6365
N     0.9    0.0    0.3
C     2.3   -0.0    0.0
N     2.9   -1.1   -0.4
C     3.0    1.3    0.1
C     2.4    2.5    0.1
C     4.5    1.2    0.3
O     5.1    0.5   -0.8
H     0.6    0.7    0.9
H     0.4   -0.9    0.3
H     2.4   -1.9   -0.4
H     1.3    2.5   -0.1
H     2.9    3.4    0.1
H     4.7    0.7    1.3
H     4.9    2.2    0.4
H     4.6   -0.3   -0.9
