          15
 frame:         5799
C     2.0   -0.5    0.4
N     3.3   -0.0    0.1
C     4.3   -0.8   -0.3
O     4.2   -2.1   -0.4
C     5.7   -0.1   -0.6
C     5.8    0.8   -1.8
N     5.7    1.3   -0.4
H     1.7   -0.3    1.4
H     2.0   -1.6    0.2
H     1.2    0.0   -0.3
H     3.6    1.0    0.2
H     6.5   -0.8   -0.3
H     4.9    0.9   -2.4
H     6.7    0.8   -2.3
H     6.6    1.6   -0.1
