          15
 frame:         1645
C     1.0   -0.0    0.6
C     2.4    0.0    0.0
C     2.7    0.8   -1.2
N     4.0    1.1   -1.5
C     4.7   -0.0   -1.7
N     4.1   -1.1   -1.5
C     2.7   -0.8   -1.2
H     0.8    0.8    1.3
H     0.9   -0.9    1.2
H     0.3   -0.0   -0.2
H     3.2    0.0    0.8
H     1.9    1.4   -1.7
H     4.3    1.9   -2.1
H     5.8   -0.0   -1.9
H     1.9   -1.4   -1.6
