          15
 frame:         4747
C     0.9   -0.1    0.3
C     2.4   -0.0   -0.0
C     2.8    1.2   -0.8
N     4.3    1.1   -1.1
N     4.6   -0.0   -1.9
C     3.8   -1.1   -1.7
O     2.7   -1.2   -0.8
H     0.7    0.8    1.0
H     0.7   -1.0    0.8
H     0.3    0.0   -0.6
H     3.0   -0.1    0.9
H     2.7    2.1   -0.2
H     2.2    1.4   -1.7
H     4.6    1.9   -1.6
H     4.0   -2.0   -2.2
