          20
 frame:         2693
C     1.6    0.4   -1.5
N     3.0    0.5   -1.3
C     3.4    1.2   -0.1
C     4.9    1.3    0.1
C     5.5   -0.0    0.4
C     5.5    2.5    0.1
C     7.0    2.8    0.3
H     1.4   -0.1   -2.4
H     1.0    1.4   -1.5
H     1.1   -0.2   -0.7
H     3.4    1.0   -2.1
H     2.9    0.7    0.8
H     2.9    2.3   -0.0
H     5.2   -0.5    1.3
H     6.6    0.0    0.4
H     5.2   -0.8   -0.4
H     4.9    3.4   -0.1
H     7.5    1.9    0.5
H     7.1    3.5    1.1
H     7.4    3.3   -0.6
