          20
 frame:         2263
C     0.9   -0.5    0.5
C     2.3   -0.3   -0.0
C     2.8   -1.5   -0.8
C     2.5    1.0   -0.8
N     3.9    1.4   -1.1
C     1.6    1.0   -2.1
C     2.1    1.5   -3.3
H     0.5    0.4    1.0
H     0.8   -1.4    1.2
H     0.1   -0.7   -0.3
H     3.0   -0.2    0.8
H     2.1   -1.7   -1.7
H     2.7   -2.4   -0.2
H     3.8   -1.4   -1.2
H     2.0    1.8   -0.2
H     4.3    0.7   -1.7
H     4.4    1.4   -0.2
H     0.6    0.7   -2.0
H     3.1    1.9   -3.4
H     1.4    1.4   -4.2
