          15
 frame:         3662
C     1.0   -0.0   -0.1
C     2.5    0.0   -0.1
C     3.7    0.0    0.0
C     5.1    0.0    0.1
C     5.8    1.3   -0.3
C     5.2    2.2   -1.3
O     6.9    1.6    0.2
H     0.6    1.0   -0.2
H     0.6   -0.5    0.8
H     0.7   -0.6   -1.0
H     5.6   -0.8   -0.5
H     5.5   -0.2    1.1
H     4.8    1.6   -2.1
H     5.8    3.0   -1.6
H     4.2    2.6   -0.8
