          15
 frame:         4350
O     1.0    0.1    0.0
C     2.4    0.0   -0.0
C     3.0    1.2    0.8
C     4.3    0.6    1.2
O     4.2   -0.8    1.3
C     3.0   -1.2    0.7
C     2.6   -2.5    0.6
H     0.6   -0.7   -0.5
H     2.8    0.1   -1.1
H     2.4    1.3    1.7
H     3.0    2.1    0.3
H     5.1    0.8    0.4
H     4.7    1.0    2.2
H     1.6   -2.7    0.1
H     3.1   -3.3    1.1
