          12
 frame:         5383
C     1.0   -0.1    0.0
C     2.3   -0.1    0.0
N     3.1    1.1    0.0
C     4.5    1.1    0.0
O     5.2    0.0    0.0
C     5.1    2.4    0.0
C     5.7    3.5    0.0
H     0.4   -1.0    0.0
H     0.4    0.9    0.0
H     2.9   -1.0    0.0
H     2.6    2.0    0.0
H     6.2    4.4   -0.0
