          18
 frame:         6614
O     1.8   -0.3   -1.2
C     2.1    0.3    0.1
C     3.2    1.4   -0.0
C     2.7    2.6   -0.8
C     2.5    3.6    0.4
C     3.6    3.3    1.3
N     3.6    1.8    1.3
H     1.1   -0.9   -1.1
H     2.5   -0.5    0.8
H     1.2    0.7    0.6
H     4.0    0.9   -0.6
H     1.7    2.4   -1.3
H     3.4    3.0   -1.5
H     2.5    4.7    0.0
H     1.5    3.5    0.9
H     4.6    3.7    0.9
H     3.5    3.7    2.3
H     4.5    1.4    1.6
