          15
 frame:         4474
O     2.7   -0.7    1.1
C     2.3    0.0   -0.1
C     2.9    1.4    0.0
C     2.4    2.2    1.2
C     1.7    3.3    1.2
C     4.4    1.4    0.0
C     5.6    1.4   -0.0
H     2.4   -1.6    1.0
H     1.2    0.1   -0.2
H     2.8   -0.5   -1.0
H     2.6    2.0   -0.9
H     2.7    1.7    2.2
H     1.4    3.7    0.2
H     1.3    3.8    2.1
H     6.7    1.4   -0.0
