          16
 frame:         1684
C     1.3    0.1    0.7
C     2.4   -0.1   -0.1
C     2.8   -1.4   -0.6
C     4.4   -1.3   -0.7
C     4.6    0.2   -0.9
N     3.8    0.8   -1.9
C     3.4    0.9   -0.5
H     1.1    1.1    1.1
H     0.7   -0.7    1.1
H     2.4   -1.5   -1.6
H     2.5   -2.3   -0.0
H     4.8   -1.6    0.2
H     4.8   -1.9   -1.6
H     5.6    0.6   -0.7
H     4.2    1.7   -2.2
H     3.4    1.9    0.0
