          16
 frame:         4693
C     1.1   -0.3    0.2
C     2.5   -0.2   -0.2
C     3.1   -0.6   -1.6
N     2.9    0.8   -1.2
C     4.1    1.7   -1.1
C     4.0    2.7   -0.0
O     5.0    1.6   -1.9
H     0.8    0.5    0.9
H     0.9   -1.3    0.6
H     0.5   -0.1   -0.7
H     3.3   -0.3    0.6
H     2.3   -0.9   -2.3
H     4.1   -1.0   -1.7
H     2.9    2.9    0.2
H     4.5    3.6   -0.3
H     4.5    2.3    0.9
