          20
 frame:         2185
C     0.9    0.2    0.1
C     2.4   -0.1    0.1
C     3.2    1.2   -0.1
C     4.7    1.1   -0.1
C     5.5    1.1   -1.2
C     5.4    0.8    1.2
N     5.1    1.9    2.1
H     0.4   -0.8    0.3
H     0.6    0.6   -0.8
H     0.6    0.9    0.9
H     2.7   -0.8   -0.6
H     2.7   -0.5    1.1
H     3.0    2.0    0.6
H     2.9    1.6   -1.1
H     5.0    1.3   -2.2
H     6.5    1.0   -1.2
H     6.5    0.6    1.0
H     5.0   -0.1    1.6
H     5.6    2.7    1.9
H     5.5    1.7    3.1
