          17
 frame:         5165
C     0.8   -0.2    0.2
C     2.3    0.0   -0.0
C     3.1   -0.7    1.1
N     2.8   -0.4   -1.4
C     2.7    1.5    0.2
N     3.5    2.0   -0.8
O     2.2    2.2    1.1
H     0.2    0.3   -0.6
H     0.5    0.2    1.1
H     0.6   -1.2    0.1
H     2.9   -0.3    2.0
H     4.2   -0.6    0.9
H     2.9   -1.8    1.0
H     2.1   -0.2   -2.0
H     2.9   -1.4   -1.3
H     3.9    1.4   -1.4
H     3.9    3.0   -0.6
