          16
 frame:         5958
C     2.7   -0.8   -0.7
O     2.5    0.1    0.4
C     3.0    1.4    0.1
C     2.4    2.3    1.2
C     4.5    1.4    0.2
N     5.2    1.8   -0.8
O     6.5    1.7   -0.6
H     2.3   -1.8   -0.5
H     3.8   -0.9   -0.9
H     2.2   -0.5   -1.6
H     2.7    1.7   -0.9
H     2.7    1.9    2.2
H     1.3    2.2    1.2
H     2.7    3.3    1.1
H     5.0    1.1    1.1
H     6.9    2.0   -1.5
