          15
 frame:         3955
C     1.2    0.1    1.1
C     2.0    0.4   -0.1
O     1.8   -0.1   -1.2
C     3.2    1.3    0.1
C     3.2    2.6   -0.7
C     3.4    3.3    0.7
O     3.3    2.0    1.4
H     1.9   -0.3    2.0
H     0.4   -0.7    0.9
H     0.8    1.0    1.5
H     4.1    0.7   -0.1
H     2.2    2.9   -1.1
H     3.9    2.8   -1.4
H     4.5    3.7    0.8
H     2.7    4.0    1.1
