          14
 frame:         6185
N     2.1   -0.5   -1.4
C     2.5   -0.1    0.0
C     3.0    1.4    0.0
C     2.2    2.5   -0.1
O     3.1    3.6   -0.1
C     4.3    3.1    0.1
C     4.3    1.8    0.1
H     1.9   -1.5   -1.4
H     2.9   -0.4   -2.0
H     3.2   -0.7    0.5
H     1.6   -0.1    0.6
H     1.2    2.7   -0.2
H     5.1    3.9    0.1
H     5.2    1.1    0.2
