          18
 frame:         1809
C     0.9   -0.2    0.6
C     2.2   -0.0   -0.0
C     3.0    1.2    0.4
N     3.8    0.4    1.4
C     3.4   -0.8    0.7
C     4.4   -1.4   -0.3
C     4.9   -2.7   -0.2
H     0.5   -1.2    0.4
H     0.1    0.5    0.2
H     0.9   -0.1    1.7
H     2.2   -0.2   -1.1
H     2.4    2.0    0.9
H     3.6    1.7   -0.4
H     4.8    0.6    1.3
H     3.0   -1.6    1.4
H     4.8   -0.8   -1.1
H     4.5   -3.4    0.5
H     5.6   -3.0   -0.9
