          17
 frame:          556
C     1.2   -0.3   -0.2
N     2.7   -0.2    0.0
C     3.2    1.1   -0.1
C     4.7    1.2    0.2
C     5.6    1.7   -0.7
C     7.1    1.7   -0.4
H     0.9   -1.4   -0.2
H     0.9    0.1   -1.2
H     0.7    0.2    0.6
H     3.2   -0.8   -0.6
H     2.7    1.8    0.7
H     3.0    1.6   -1.1
H     5.0    0.8    1.2
H     5.2    2.0   -1.6
H     7.3    1.3    0.6
H     7.4    2.8   -0.5
H     7.6    1.1   -1.2
