          14
 frame:         6661
O     2.3   -0.3   -1.5
C     2.3    0.1   -0.1
C     3.4    1.2    0.0
C     3.5    1.8    1.4
O     2.8    3.1    1.4
N     2.6    3.5    0.1
C     2.9    2.5   -0.7
H     1.6   -1.0   -1.6
H     2.6   -0.8    0.5
H     1.3    0.4    0.2
H     4.3    0.9   -0.4
H     4.5    1.9    1.7
H     3.0    1.1    2.2
H     2.8    2.6   -1.8
