          13
 frame:         5653
C     3.0   -1.1    0.4
N     2.5    0.0   -0.4
C     3.1    1.3   -0.1
C     2.6    2.5   -0.1
N     3.7    3.4    0.0
C     4.7    2.7    0.1
O     4.5    1.3   -0.0
H     2.5   -2.0    0.1
H     2.9   -1.0    1.5
H     4.1   -1.3    0.2
H     1.5    0.1   -0.4
H     1.6    2.9   -0.2
H     5.8    2.9    0.2
