          17
 frame:         2565
C     2.9   -1.3   -1.9
C     2.1   -1.0   -0.6
N     2.4    0.4   -0.1
N     1.6    0.8    0.9
C     2.0    1.8    1.6
C     1.2    2.4    2.6
C     1.5    3.4    3.4
H     2.7   -2.3   -2.2
H     4.0   -1.1   -1.8
H     2.5   -0.6   -2.7
H     2.5   -1.7    0.2
H     1.1   -1.1   -0.7
H     3.4    0.7   -0.1
H     3.0    2.3    1.4
H     0.2    1.9    2.8
H     2.5    3.9    3.3
H     0.9    3.8    4.2
