          17
 frame:         4269
O     1.1   -0.1    0.1
C     2.5    0.0    0.0
C     3.1    1.1   -1.0
C     2.7    0.0   -2.1
C     3.1   -1.0   -1.0
C     4.6   -0.8   -0.8
C     4.6    0.8   -0.8
H     0.8    0.7    0.5
H     2.9   -0.0    1.0
H     2.8    2.1   -1.0
H     3.3    0.0   -3.0
H     1.6    0.0   -2.3
H     2.7   -2.0   -1.1
H     5.0   -1.2    0.1
H     5.2   -1.2   -1.7
H     5.2    1.2   -1.6
H     5.0    1.2    0.1
