          12
 frame:         2895
N     1.0    0.0    0.1
C     2.1    0.0    0.1
C     3.6   -0.0   -0.1
C     4.2    1.2   -0.8
C     5.0    0.7   -1.8
C     5.0   -0.7   -1.8
C     4.2   -1.2   -0.8
H     4.0    0.0    1.0
H     3.9    2.2   -0.6
H     5.5    1.4   -2.5
H     5.5   -1.4   -2.5
H     3.9   -2.2   -0.6
