          21
 frame:         4187
C     1.8   -0.9   -0.4
O     3.1   -0.3   -0.2
C     3.0    1.1   -0.2
C     4.4    1.6   -0.1
C     4.5    3.1    0.1
C     5.9    3.6    0.4
C     3.9    3.9   -1.1
H     1.9   -2.0   -0.4
H     1.3   -0.6   -1.3
H     1.1   -0.7    0.5
H     2.4    1.4    0.7
H     2.5    1.5   -1.1
H     5.0    1.3   -0.9
H     4.9    1.1    0.8
H     3.9    3.4    1.0
H     6.6    3.3   -0.4
H     6.3    3.1    1.3
H     6.0    4.7    0.6
H     4.5    3.7   -2.0
H     4.0    5.0   -0.9
H     2.9    3.7   -1.3
