          17
 frame:         3763
C     1.1   -0.1    0.7
C     2.5   -0.0    0.0
C     2.5   -0.6   -1.4
C     1.6    0.1   -2.4
O     1.6   -0.5   -3.7
C     3.0    1.4   -0.0
C     3.4    2.5   -0.0
H     1.2    0.2    1.7
H     0.8   -1.1    0.7
H     0.4    0.5    0.2
H     3.2   -0.6    0.6
H     2.2   -1.7   -1.3
H     3.5   -0.6   -1.8
H     1.8    1.1   -2.5
H     0.5   -0.0   -2.1
H     2.5   -0.4   -4.1
H     3.8    3.5   -0.0
