          14
 frame:         2115
C     1.0    0.0    0.2
C     2.5   -0.1    0.0
C     3.1   -1.3   -0.5
C     3.4    1.0    0.3
C     3.0    2.2    0.7
C     3.9    3.3    0.9
N     4.6    4.2    1.1
H     0.6    0.8   -0.4
H     0.8    0.3    1.3
H     0.5   -0.9    0.0
H     2.5   -2.1   -0.7
H     4.1   -1.3   -0.6
H     4.5    0.9    0.1
H     1.9    2.4    0.9
