          13
 frame:         4298
O     1.6    0.0    1.4
C     2.4    0.0    0.5
C     3.0   -1.3   -0.1
C     4.0   -0.8   -1.1
O     5.1   -0.0   -0.4
C     4.0    0.7   -1.1
C     3.0    1.3   -0.2
H     2.2   -1.8   -0.7
H     3.3   -1.9    0.6
H     4.4   -1.4   -1.9
H     4.4    1.3   -2.0
H     3.3    2.0    0.6
H     2.2    1.8   -0.7
