          16
 frame:         2480
C     0.9   -0.1   -0.0
C     2.5   -0.0   -0.0
N     3.1   -0.8   -1.2
C     3.0    1.4   -0.0
C     3.3    2.5   -0.0
C     3.8    3.8   -0.0
C     3.1    5.0    0.0
H     0.6    0.5    0.9
H     0.6   -1.1    0.0
H     0.5    0.4   -0.9
H     2.9   -0.5    0.9
H     2.8   -0.3   -2.0
H     2.7   -1.7   -1.2
H     4.9    4.0   -0.1
H     2.0    4.9    0.1
H     3.5    5.9    0.0
