          12
 frame:         6506
O     1.0   -0.1    0.1
C     2.3   -0.0    0.0
C     3.0    1.2   -0.1
C     4.4    1.1   -0.2
C     5.1   -0.1   -0.2
N     4.4   -1.3   -0.1
C     3.1   -1.2   -0.0
H     0.6    0.8    0.1
H     2.5    2.1   -0.1
H     5.0    2.1   -0.2
H     6.2   -0.2   -0.2
H     2.5   -2.2    0.1
