          18
 frame:         4998
C     3.0   -1.2   -0.5
C     2.4   -0.0    0.2
C     3.4    1.2    0.2
O     4.5    0.9    1.0
C     3.6    2.0   -1.0
C     2.9    2.6    0.2
N     3.5    3.7    1.0
H     2.2   -2.1   -0.5
H     3.9   -1.6   -0.0
H     3.2   -1.0   -1.6
H     2.1   -0.3    1.2
H     1.5    0.3   -0.3
H     4.3    0.8    1.9
H     3.0    1.8   -1.9
H     4.6    2.4   -1.1
H     1.8    2.7    0.1
H     4.5    3.5    1.1
H     3.1    3.7    1.9
