          14
 frame:         4627
C     0.9    0.0    0.1
C     2.4    0.1    0.0
C     3.3    1.2   -0.0
C     4.6    0.6   -0.0
C     4.5   -0.7    0.1
N     3.2   -1.0    0.1
O     2.7   -2.3    0.2
H     0.5    1.1    0.1
H     0.6   -0.5    0.9
H     0.5   -0.5   -0.8
H     3.0    2.2   -0.1
H     5.5    1.2   -0.1
H     5.3   -1.5    0.1
H     2.5   -2.7   -0.7
