          17
 frame:         1358
C     1.0   -0.0    0.0
C     2.5   -0.0   -0.0
C     3.1    1.3    0.0
C     3.6    2.5    0.0
C     4.1    3.8    0.0
C     3.9    4.7   -1.1
C     3.2    5.0    0.2
H     0.6   -1.0    0.0
H     0.6    0.5   -0.9
H     0.6    0.5    0.9
H     2.9   -0.6   -0.9
H     2.9   -0.6    0.9
H     5.1    3.9    0.5
H     3.3    4.3   -2.0
H     4.7    5.3   -1.4
H     3.6    5.8    0.8
H     2.1    4.8    0.2
