          20
 frame:         2854
N     1.0    0.0    0.1
C     2.5    0.0    0.0
C     3.0   -1.3   -0.5
C     2.6   -1.5   -2.0
C     3.1   -0.4   -2.9
C     2.6    1.0   -2.3
C     3.0    1.2   -0.9
H     0.7    0.9    0.5
H     0.7   -0.7    0.7
H     2.9    0.1    1.0
H     2.5   -2.2    0.1
H     4.0   -1.4   -0.4
H     3.0   -2.5   -2.4
H     1.5   -1.6   -2.1
H     4.2   -0.4   -2.8
H     2.8   -0.5   -3.9
H     3.0    1.8   -2.9
H     1.5    1.0   -2.5
H     4.1    1.2   -0.8
H     2.5    2.1   -0.5
