          18
 frame:         6294
N     1.3    0.1    0.5
C     2.6    0.2   -0.1
C     2.5   -0.3   -1.6
C     3.9   -0.3   -2.2
O     3.8   -0.9   -3.6
C     3.0    1.7   -0.1
C     4.1    2.2    0.5
H     1.3    0.4    1.5
H     0.9   -0.8    0.5
H     3.4   -0.3    0.5
H     1.8    0.3   -2.1
H     2.1   -1.4   -1.5
H     4.6   -0.9   -1.7
H     4.3    0.7   -2.4
H     3.5   -1.8   -3.5
H     2.3    2.4   -0.6
H     4.8    1.5    1.1
H     4.3    3.2    0.5
