          15
 frame:         2553
C     1.5    3.2   -0.6
C     2.7    2.5   -0.1
N     3.9    2.9   -0.5
N     4.8    2.0    0.0
C     6.0    2.4   -0.3
C     7.2    1.7    0.1
C     8.5    2.1   -0.2
H     0.9    3.5    0.3
H     0.8    2.5   -1.2
H     1.7    4.1   -1.2
H     2.6    1.5    0.5
H     6.2    3.3   -0.9
H     7.0    0.8    0.7
H     8.6    3.0   -0.8
H     9.3    1.5    0.1
