          18
 frame:         1896
C     1.0    0.0   -0.1
C     2.5    0.0   -0.0
N     3.0    0.1   -1.4
C     3.0   -1.3    0.7
C     3.4   -0.9    2.1
C     3.5    0.6    2.0
C     3.0    1.1    0.9
H     0.5   -0.1    0.9
H     0.6   -0.8   -0.7
H     0.6    1.0   -0.4
H     4.0    0.2   -1.4
H     2.6    0.9   -1.9
H     3.9   -1.6    0.1
H     2.3   -2.1    0.6
H     4.4   -1.4    2.4
H     2.6   -1.2    2.8
H     4.0    1.2    2.9
H     2.9    2.1    0.7
