          14
 frame:         7194
O     1.1   -0.3    0.8
S     2.3   -0.1   -0.0
O     2.2    0.1   -1.5
C     3.2    1.3    0.8
C     4.5    0.6    1.3
C     4.2   -0.9    1.4
N     3.4   -1.3    0.3
H     2.6    1.6    1.6
H     3.4    2.0    0.0
H     5.3    0.7    0.6
H     4.9    1.1    2.2
H     5.1   -1.5    1.5
H     3.6   -1.1    2.4
H     4.0   -1.4   -0.6
