          14
 frame:         7038
C     1.0    0.1    0.1
C     2.5   -0.1   -0.0
C     3.2   -1.2   -0.0
S     3.4    1.5   -0.2
N     5.0    1.0   -0.4
O     2.9    2.1   -1.5
O     3.2    2.2    1.1
H     0.8    0.7    1.0
H     0.5   -0.9    0.3
H     0.6    0.6   -0.7
H     2.6   -2.2    0.1
H     4.2   -1.3   -0.1
H     5.5    1.5    0.4
H     5.3    1.4   -1.3
