          16
 frame:         1950
C     1.1   -0.1   -0.4
C     2.4   -0.0   -0.3
C     3.1    1.2   -0.2
C     4.4    1.4   -0.2
C     4.8    2.9    0.0
N     3.5    3.6   -0.2
C     2.4    2.6   -0.1
H     0.6   -1.1   -0.4
H     0.4    0.7   -0.3
H     3.0   -0.9   -0.4
H     5.2    0.6   -0.2
H     5.2    3.0    1.0
H     5.6    3.2   -0.7
H     3.5    4.0   -1.2
H     1.7    2.8   -0.9
H     1.9    2.7    0.9
