          20
 frame:         5105
C     0.9   -0.4   -0.1
C     2.5   -0.7   -0.1
C     3.2    0.7   -0.1
C     4.8    0.5    0.0
O     5.2   -0.2   -1.2
C     5.5    1.8    0.1
N     7.0    1.6   -0.0
H     0.4   -1.4   -0.2
H     0.7    0.1   -1.1
H     0.6    0.1    0.7
H     2.8   -1.2   -1.0
H     2.7   -1.3    0.8
H     2.9    1.2    0.8
H     3.0    1.3   -0.9
H     5.0   -0.1    0.9
H     6.2    0.1   -1.2
H     5.2    2.3    1.1
H     5.2    2.5   -0.7
H     7.4    1.2    0.8
H     7.5    2.4   -0.3
