          14
 frame:         4962
C     0.9   -0.1   -0.1
C     2.4    0.1    0.2
C     3.2    1.2    0.1
C     4.6    1.3    0.4
O     4.9    2.8    0.1
N     3.7    3.4   -0.3
C     2.8    2.5   -0.3
H     0.8   -0.8   -0.9
H     0.5    0.9   -0.4
H     0.4   -0.4    0.8
H     2.9   -0.9    0.5
H     5.3    0.7   -0.2
H     4.9    1.1    1.5
H     1.8    2.9   -0.6
