          19
 frame:         2236
C     1.4   -1.1   -0.0
C     2.9   -0.7   -0.0
C     3.2    0.8    0.1
C     4.7    1.2    0.1
C     5.5    0.6    1.3
N     6.5   -0.1    1.1
N     7.2   -0.5    2.3
H     1.3   -2.1   -0.1
H     0.9   -0.6   -0.8
H     1.0   -0.8    0.9
H     3.4   -1.1   -1.0
H     3.5   -1.3    0.8
H     2.8    1.1    1.1
H     2.7    1.3   -0.7
H     4.8    2.3    0.1
H     5.2    0.8   -0.8
H     5.1    0.9    2.3
H     7.7   -1.4    2.1
H     6.7   -0.5    3.1
