          17
 frame:         2820
N     1.1   -0.0    0.0
C     2.5   -0.0   -0.0
C     3.1    1.0   -1.0
C     2.8    0.0   -2.1
C     3.2   -1.0   -1.1
N     4.6   -0.7   -0.9
C     4.6    0.8   -0.8
H     0.7    0.8    0.5
H     0.7   -0.9    0.5
H     3.0   -0.0    1.0
H     2.8    2.1   -1.0
H     3.4    0.1   -3.0
H     1.7    0.0   -2.4
H     2.9   -2.0   -1.1
H     4.9   -1.1   -0.0
H     5.2    1.2   -1.6
H     5.0    1.1    0.2
