          16
 frame:         5029
C     3.2   -0.4    1.4
C     2.8    0.2    0.0
C     2.9    1.7   -0.0
C     1.8    2.4   -0.2
C     4.2    2.3    0.0
N     4.3    3.5    0.6
O     5.2    1.7   -0.5
H     3.2   -1.5    1.3
H     2.5   -0.1    2.2
H     4.2   -0.1    1.6
H     1.8   -0.2   -0.3
H     3.5   -0.2   -0.8
H     0.8    2.0   -0.2
H     1.8    3.5   -0.2
H     3.6    3.9    1.3
H     5.3    3.9    0.8
