          14
 frame:          458
C     0.9    0.1   -0.1
C     2.4    0.1   -0.2
C     3.2    0.9    0.3
C     4.7    0.9    0.1
N     5.2   -0.2   -0.4
N     5.4    2.0    0.3
H     0.5   -0.9    0.4
H     0.3    0.2   -1.0
H     0.6    0.9    0.6
H     2.8   -0.7   -0.9
H     2.8    1.8    0.9
H     4.9   -1.1   -0.1
H     6.3   -0.2   -0.4
H     4.9    2.8    0.6
