          17
 frame:         2740
C     1.1   -0.3   -0.1
N     2.5    0.1   -0.1
C     2.9    1.3   -0.0
C     2.0    2.5    0.1
N     4.2    1.6   -0.1
C     4.9    2.8    0.0
C     6.2    3.0    0.0
H     1.0   -1.4   -0.1
H     0.6    0.1   -1.0
H     0.6    0.1    0.8
H     0.9    2.2    0.1
H     2.1    3.2   -0.7
H     2.2    3.1    1.0
H     4.8    0.7   -0.1
H     4.2    3.7    0.1
H     6.9    2.1   -0.1
H     6.7    4.0    0.1
