          16
 frame:         2900
N     1.9   -0.4    1.4
C     2.4   -0.0    0.1
C     3.0    1.4    0.0
C     4.3    1.8   -0.1
C     4.4    3.2   -0.1
C     3.0    3.7    0.1
C     2.2    2.6    0.2
H     1.4   -1.3    1.4
H     1.2    0.3    1.7
H     1.6   -0.1   -0.7
H     3.2   -0.7   -0.2
H     5.1    1.1   -0.2
H     4.8    3.6   -1.0
H     5.0    3.6    0.8
H     2.7    4.7    0.1
H     1.1    2.6    0.3
