          17
 frame:         4159
C     2.6   -0.6    1.0
O     2.1    0.8    0.7
C     3.1    1.7    0.3
C     2.5    3.0    0.1
C     1.1    3.3    0.2
C     4.4    1.4    0.2
C     5.5    2.4   -0.2
H     1.7   -1.1    1.3
H     3.3   -0.6    1.8
H     3.0   -1.0    0.1
H     3.1    3.8   -0.2
H     0.4    2.5    0.5
H     0.8    4.3   -0.0
H     4.7    0.4    0.4
H     5.1    3.4   -0.4
H     6.0    2.0   -1.1
H     6.2    2.5    0.6
