          15
 frame:         3122
C    -1.2   -0.7   -0.5
O    -1.2    0.7   -0.5
C    -0.0    1.1    0.3
C     1.2    0.7   -0.5
O     1.2   -0.7   -0.4
C     0.0   -1.1    0.3
C    -0.0   -0.0    1.4
H    -1.1   -1.1   -1.6
H    -2.1   -1.1   -0.1
H    -0.1    2.1    0.6
H     2.1    1.1   -0.1
H     1.1    1.1   -1.5
H     0.1   -2.1    0.6
H    -0.9   -0.0    2.0
H     0.9   -0.0    2.0
