          18
 frame:         5904
C     1.4   -0.4   -0.0
O     2.8   -0.2   -0.1
C     3.2    1.1    0.1
C     4.7    1.3    0.0
C     5.5    0.6    1.1
C     5.4    1.4   -1.3
N     5.2    2.6   -0.4
H     1.2   -1.5   -0.1
H     0.9    0.2   -0.9
H     1.0   -0.0    0.9
H     2.8    1.6    1.0
H     2.8    1.8   -0.8
H     6.5    0.7    1.0
H     5.2   -0.5    1.2
H     5.2    1.0    2.1
H     4.8    1.4   -2.2
H     6.4    1.1   -1.4
H     6.0    2.9    0.1
