          15
 frame:         4266
O     1.0   -0.1   -0.1
C     2.4    0.0   -0.0
C     3.3   -0.6   -1.1
C     4.4   -0.3    0.0
C     3.3   -0.8    1.0
O     4.4    1.1    0.1
C     3.0    1.4    0.1
H     0.6    0.3    0.6
H     3.5   -0.0   -2.0
H     3.1   -1.6   -1.3
H     5.4   -0.7   -0.0
H     3.1   -1.8    1.0
H     3.4   -0.4    2.0
H     2.7    2.1   -0.7
H     2.7    1.9    1.1
