          15
 frame:         1457
C     0.9   -0.1   -0.0
C     2.4   -0.1   -0.0
C     3.6    0.0   -0.0
C     5.0    0.1    0.0
C     5.6    1.4    0.0
C     6.0    2.5    0.0
C     6.6    3.9   -0.0
H     0.5    0.9    0.0
H     0.5   -0.7    0.9
H     0.5   -0.6   -0.9
H     5.4   -0.5   -0.9
H     5.4   -0.5    0.9
H     5.8    4.6   -0.3
H     7.4    4.0   -0.7
H     7.0    4.2    1.0
