          16
 frame:          318
C     1.0   -0.1    0.0
C     2.5   -0.0    0.0
C     3.0    1.4    0.0
C     4.5    1.5    0.0
C     5.1    2.8    0.0
C     5.5    4.0   -0.0
H     0.6   -1.2    0.0
H     0.5    0.4   -0.9
H     0.5    0.4    0.9
H     2.9   -0.6   -0.9
H     2.9   -0.6    0.9
H     2.6    1.9    0.9
H     2.6    1.9   -0.9
H     5.0    0.9   -0.9
H     4.9    0.9    0.9
H     5.8    5.0   -0.0
