          12
 frame:          132
N     1.0    0.0    0.0
C     2.4   -0.0   -0.1
C     3.0    1.4    0.0
C     4.4    1.5   -0.0
C     5.6    1.5   -0.0
H     0.6   -0.9    0.1
H     0.6    0.3   -0.9
H     2.8   -0.5   -0.9
H     2.8   -0.6    0.8
H     2.6    1.9    0.9
H     2.6    2.0   -0.9
H     6.7    1.5   -0.0
