          14
 frame:         2944
N     1.0    0.4   -1.1
C     2.2    0.4   -1.0
C     3.6    0.3   -0.9
C     4.3    1.1   -0.1
C     5.8    1.1    0.0
C     6.7    0.4   -1.0
C     6.6    1.9   -1.0
H     4.1   -0.4   -1.6
H     3.8    1.7    0.6
H     6.2    1.2    1.0
H     6.2   -0.2   -1.8
H     7.6   -0.1   -0.6
H     7.4    2.5   -0.7
H     6.0    2.3   -1.9
