          18
 frame:         1897
C     1.0    0.0   -0.1
C     2.5   -0.0    0.1
N     2.9   -1.3    0.8
C     3.4   -0.9    2.2
C     4.7   -1.6    2.6
C     3.5    0.7    2.1
C     3.0    1.1    0.9
H     0.6   -0.8   -0.7
H     0.7    1.0   -0.7
H     0.5    0.0    0.8
H     3.0   -0.0   -0.9
H     3.7   -1.7    0.3
H     2.6   -1.1    2.9
H     5.5   -1.3    1.9
H     4.5   -2.7    2.5
H     5.0   -1.3    3.6
H     3.8    1.3    2.9
H     2.9    2.1    0.6
