          18
 frame:         1636
C     0.8    0.0   -0.3
C     2.2   -0.1    0.1
C     3.2   -1.0   -0.6
C     2.9   -1.6   -1.9
C     2.6   -0.4   -2.9
C     3.1    0.9   -2.0
N     3.4    0.5   -0.7
H     0.4    1.1   -0.2
H     0.2   -0.6    0.4
H     0.5   -0.3   -1.3
H     2.4    0.0    1.2
H     4.0   -1.5    0.0
H     3.8   -2.1   -2.3
H     2.1   -2.3   -1.9
H     3.1   -0.4   -3.8
H     1.5   -0.3   -3.1
H     4.0    1.3   -2.5
H     2.3    1.7   -2.0
