          14
 frame:         7082
C     3.0   -1.2    0.5
N     2.4    0.0   -0.1
C     3.1    1.2   -0.0
C     2.5    2.5   -0.2
S     3.7    3.8   -0.1
C     5.0    2.6    0.1
C     4.5    1.3    0.1
H     2.2   -2.0    0.4
H     3.2   -1.1    1.6
H     3.9   -1.5   -0.1
H     1.4    0.1    0.1
H     1.4    2.7   -0.3
H     6.0    3.0    0.2
H     5.2    0.5    0.2
