          16
 frame:         5219
C     1.0    0.1    0.1
C     2.5    0.1    0.2
C     3.2    1.4   -0.3
O     2.5    2.4   -0.8
C     4.7    1.6   -0.1
C     5.3    1.4    1.2
N     5.5    0.4    0.1
H     0.6   -0.9    0.4
H     0.7    0.3   -0.9
H     0.6    0.9    0.7
H     3.0   -0.7   -0.4
H     2.9   -0.1    1.2
H     5.0    2.4   -0.8
H     4.8    1.1    2.0
H     6.2    2.1    1.4
H     6.4    0.5   -0.4
