          13
 frame:         6455
N     1.4   -0.7   -0.5
N     2.6   -0.0    0.0
C     3.4    0.8   -0.8
O     3.1    1.0   -1.9
C     4.5    1.6   -0.0
C     4.6    1.4    1.4
C     4.6    1.1    2.6
H     1.7   -1.5   -1.0
H     1.1   -0.0   -1.3
H     2.7   -0.0    1.0
H     4.3    2.6   -0.2
H     5.4    1.3   -0.5
H     4.7    1.0    3.7
