          17
 frame:          446
C     2.5   -0.5   -1.3
C     2.3    0.2    0.1
C     2.8    1.7    0.1
C     2.0    2.7    0.2
C     4.3    1.9   -0.1
N     5.0    1.1    1.0
H     2.1   -1.5   -1.3
H     3.6   -0.6   -1.5
H     2.0    0.1   -2.1
H     2.8   -0.3    0.8
H     1.2    0.2    0.3
H     0.9    2.6    0.3
H     2.3    3.7    0.2
H     4.5    3.0   -0.1
H     4.6    1.5   -1.0
H     4.8    1.6    1.9
H     6.0    1.2    0.8
