          18
 frame:         6064
N     0.7   -0.5   -0.1
C     2.1   -0.7   -0.2
C     2.6   -0.5   -1.6
C     3.0    0.5   -0.6
C     4.4    0.6   -0.0
C     4.5    1.3    1.3
O     3.8    0.5    2.4
H     0.5   -0.3    0.9
H     0.1   -1.3   -0.3
H     2.6   -1.5    0.3
H     1.9   -0.2   -2.4
H     3.4   -1.1   -2.0
H     2.4    1.4   -0.6
H     5.0    1.2   -0.8
H     4.8   -0.4    0.0
H     4.1    2.3    1.3
H     5.5    1.3    1.6
H     2.9    0.3    2.1
