          15
 frame:         3976
C     3.0   -0.9    0.5
C     2.5    0.4    0.7
O     3.2    1.6    0.4
C     4.5    1.4   -0.1
C     5.1    2.8   -0.3
C     6.4    2.8   -0.9
C     7.5    2.8   -1.4
H     2.3   -1.7    0.8
H     3.9   -1.1    0.1
H     1.6    0.6    1.1
H     4.5    0.9   -1.1
H     5.2    0.8    0.6
H     5.1    3.4    0.7
H     4.4    3.4   -1.0
H     8.5    2.7   -1.8
