          16
 frame:         2184
C     1.0   -0.2    0.2
C     2.5   -0.1    0.1
C     3.0    1.4   -0.2
C     4.4    1.5   -0.2
C     5.2    1.9   -1.2
C     6.6    2.1   -1.2
N     7.7    2.2   -1.2
H     0.7   -1.3    0.4
H     0.5    0.1   -0.8
H     0.6    0.4    1.0
H     2.9   -0.8   -0.6
H     2.9   -0.4    1.1
H     2.5    2.0    0.6
H     2.5    1.7   -1.1
H     5.0    1.2    0.8
H     4.7    2.2   -2.1
