          15
 frame:         1089
N     1.0    0.0    0.0
C     2.4    0.1    0.0
C     3.1    1.1    0.9
C     4.2    0.0    1.3
C     3.1   -1.1    0.8
O     3.5   -2.3    0.2
H     0.6   -0.8   -0.5
H     0.6    0.8   -0.5
H     2.9    0.1   -1.0
H     2.5    1.3    1.8
H     3.5    2.0    0.5
H     5.0    0.1    0.5
H     4.6   -0.1    2.3
H     2.5   -1.4    1.7
H     4.2   -2.0   -0.6
