          15
 frame:         7111
C     3.7   -0.9   -1.6
S     3.0   -0.4   -0.1
O     1.5   -0.4   -0.2
O     3.7   -1.1    1.0
C     3.5    1.4    0.0
C     5.0    1.5    0.1
C     5.7    2.2   -0.8
H     4.8   -0.8   -1.6
H     3.2   -0.4   -2.5
H     3.4   -2.0   -1.7
H     3.0    1.7    1.0
H     3.0    1.9   -0.8
H     5.5    1.1    1.0
H     5.2    2.7   -1.6
H     6.8    2.3   -0.7
