          19
 frame:         4005
C     1.4    0.1   -0.5
C     2.9    0.2   -0.4
O     3.3    1.6   -0.3
C     4.6    1.8   -0.2
C     5.2    3.1   -0.1
C     4.3    4.3   -0.1
C     6.7    3.2   -0.1
H     1.1   -0.9   -0.5
H     1.1    0.6   -1.4
H     0.9    0.6    0.4
H     3.4   -0.2   -1.2
H     3.3   -0.3    0.5
H     5.3    0.9   -0.2
H     3.2    4.1   -0.2
H     4.6    5.0   -1.0
H     4.5    4.9    0.8
H     7.2    2.3   -0.1
H     7.0    3.8    0.9
H     7.0    3.9   -0.9
