          17
 frame:         3183
C     0.9    0.0    0.1
C     2.4    0.0    0.0
C     3.2    1.0    0.9
C     4.2   -0.1    1.3
C     3.2   -1.1    0.7
C     5.5   -0.0    0.5
O     5.5    0.1   -0.8
H     0.5   -0.8   -0.5
H     0.5    0.9   -0.4
H     0.6   -0.1    1.1
H     2.8    0.1   -1.0
H     2.6    1.3    1.8
H     3.6    1.9    0.4
H     4.5   -0.2    2.3
H     3.6   -1.9    0.1
H     2.6   -1.6    1.6
H     6.5   -0.1    1.0
