          15
 frame:          971
C     0.9   -0.0   -0.0
C     2.4   -0.1    0.1
C     3.3   -0.8   -0.9
N     2.9   -1.5   -2.1
C     3.4    0.7   -0.8
O     4.5    1.3   -0.2
H     0.6    0.9    0.5
H     0.4   -0.9    0.4
H     0.6    0.0   -1.1
H     2.8   -0.2    1.1
H     4.2   -1.3   -0.5
H     2.3   -0.8   -2.7
H     2.3   -2.3   -1.9
H     2.9    1.2   -1.6
H     5.2    1.3   -0.9
