          22
 frame:         2265
C     1.9   -1.4    0.3
C     3.2   -0.8   -0.4
C     2.9   -0.3   -1.8
C     3.7    0.4    0.5
N     4.9    1.1   -0.1
C     5.1    2.3    0.6
C     6.1    0.2    0.0
H     2.1   -1.7    1.3
H     1.6   -2.2   -0.3
H     1.1   -0.6    0.3
H     3.9   -1.5   -0.4
H     2.1    0.4   -1.9
H     2.6   -1.2   -2.5
H     3.8    0.1   -2.3
H     3.9    0.1    1.5
H     2.9    1.2    0.5
H     4.3    3.0    0.5
H     6.0    2.8    0.2
H     5.3    2.2    1.7
H     5.9   -0.7   -0.6
H     6.3   -0.1    1.1
H     6.9    0.7   -0.4
