          15
 frame:          439
C     0.9    0.1    0.3
C     2.4    0.0    0.0
C     2.6   -0.7   -1.3
C     3.0    1.4    0.0
C     4.5    1.4   -0.1
N     5.6    1.4   -0.2
H     0.7    0.6    1.3
H     0.4   -0.9    0.4
H     0.4    0.7   -0.5
H     2.9   -0.6    0.8
H     2.2   -0.2   -2.1
H     2.2   -1.7   -1.3
H     3.7   -0.8   -1.5
H     2.8    1.9    1.0
H     2.6    2.0   -0.8
