          16
 frame:         6840
O     0.8    1.7   -0.4
N     2.2    1.9   -0.7
C     2.9    1.1    0.1
C     4.4    1.2   -0.0
C     5.1    2.2   -0.9
C     6.2    2.4    0.2
C     5.2    1.8    1.2
H     0.4    2.3   -1.1
H     2.4    0.4    0.8
H     4.8    0.1   -0.2
H     4.5    3.1   -1.1
H     5.4    1.8   -1.9
H     7.0    1.7    0.0
H     6.5    3.4    0.3
H     5.5    1.1    1.9
H     4.6    2.6    1.7
