          14
 frame:         5923
C     2.5   -0.9   -0.9
O     2.3    0.0    0.2
C     2.8    1.3    0.0
C     2.3    2.2    1.1
C     1.6    3.3    1.0
C     4.3    1.3   -0.0
N     5.5    1.3   -0.1
H     2.1   -1.8   -0.6
H     3.6   -1.0   -1.0
H     2.1   -0.5   -1.8
H     2.5    1.8   -0.9
H     2.6    1.9    2.1
H     1.4    3.7   -0.0
H     1.3    4.0    1.8
