          20
 frame:         2497
C     1.0   -0.1   -0.0
C     2.5   -0.1    0.0
N     3.0    1.3   -0.1
C     4.5    1.4    0.1
C     5.0    2.8    0.0
C     6.5    2.9    0.0
C     7.2    3.5    1.0
H     0.6   -1.1    0.0
H     0.6    0.4   -0.9
H     0.6    0.5    0.8
H     2.9   -0.6   -0.8
H     2.9   -0.6    1.0
H     2.6    1.9    0.7
H     4.9    0.8   -0.8
H     4.9    0.9    1.0
H     4.6    3.4    0.9
H     4.6    3.3   -0.9
H     7.0    2.4   -0.8
H     6.7    4.0    1.8
H     8.3    3.5    0.9
