          17
 frame:         2811
N     1.0   -0.1   -0.1
C     2.4    0.0    0.0
C     3.4   -0.6   -1.1
N     4.5   -0.4   -0.0
C     3.4   -0.7    1.0
C     4.5    1.1    0.1
C     3.0    1.5    0.1
H     0.5    0.4    0.6
H     0.7   -1.1   -0.1
H     3.5    0.0   -2.0
H     3.2   -1.6   -1.3
H     3.2   -1.8    1.0
H     3.5   -0.3    2.0
H     5.0    1.4    1.0
H     5.0    1.5   -0.8
H     2.7    2.1   -0.7
H     2.7    2.0    1.1
