          13
 frame:         5662
C     3.2   -1.1    0.4
N     2.6    0.0   -0.2
C     3.1    1.3   -0.1
N     2.6    2.4   -0.3
C     3.6    3.3   -0.1
C     4.8    2.7    0.1
O     4.5    1.3    0.2
H     2.6   -2.0    0.1
H     3.2   -1.1    1.5
H     4.2   -1.3    0.1
H     1.6    0.1   -0.2
H     3.4    4.4   -0.2
H     5.8    3.0    0.3
