          20
 frame:         2658
C     2.8   -0.7   -1.5
N     2.1    0.3   -0.8
C     1.2    1.0   -1.7
C     3.0    1.2    0.0
C     3.3    0.6    1.4
C     4.2    1.9   -0.7
C     3.0    2.7   -0.1
H     3.5   -1.3   -0.8
H     3.5   -0.4   -2.3
H     2.1   -1.4   -1.9
H     1.7    1.6   -2.5
H     0.6    1.8   -1.1
H     0.6    0.3   -2.2
H     4.0    1.2    1.9
H     3.7   -0.5    1.3
H     2.4    0.5    1.9
H     4.2    1.9   -1.7
H     5.1    2.0   -0.1
H     3.1    3.2    0.9
H     2.3    3.2   -0.8
