          21
 frame:         1512
C     0.7    0.8   -0.0
C     2.2    0.6   -0.1
C     3.0    1.9   -0.1
C     4.5    1.7   -0.2
C     5.3    2.9   -0.2
C     6.2    3.3    0.7
C     7.0    4.6    0.7
H     0.1   -0.1    0.0
H     0.3    1.4   -0.8
H     0.4    1.4    0.9
H     2.4    0.0   -1.0
H     2.5   -0.0    0.7
H     2.8    2.5    0.8
H     2.7    2.5   -1.0
H     4.7    1.1   -1.2
H     4.8    1.0    0.6
H     5.1    3.6   -1.1
H     6.4    2.6    1.5
H     6.7    5.2   -0.2
H     8.1    4.4    0.6
H     6.8    5.1    1.6
