          16
 frame:         5287
C     0.9    0.1    0.5
C     2.4   -0.3    0.3
C     3.3    0.8   -0.0
O     3.0    2.0   -0.0
N     4.6    0.5   -0.3
C     5.7    1.4   -0.6
C     6.9    1.0   -0.8
H     0.3   -0.7    0.7
H     0.5    0.7   -0.3
H     0.9    0.8    1.4
H     2.4   -1.0   -0.6
H     2.8   -0.9    1.1
H     4.8   -0.5   -0.2
H     5.3    2.4   -0.6
H     7.3   -0.0   -0.8
H     7.7    1.8   -1.0
