          19
 frame:         1271
C     0.9    0.1    0.0
C     2.5   -0.0    0.0
C     3.0   -1.3    0.6
C     3.5   -0.9    2.1
C     3.6    0.6    2.0
C     3.1    1.1    0.9
C     3.1    2.5    0.5
H     0.5   -0.7   -0.6
H     0.6    1.0   -0.4
H     0.5   -0.0    1.1
H     2.8    0.1   -1.0
H     3.9   -1.7    0.1
H     2.3   -2.1    0.6
H     4.4   -1.4    2.4
H     2.7   -1.2    2.8
H     4.1    1.1    2.8
H     3.5    2.7   -0.5
H     3.6    3.2    1.2
H     2.0    2.9    0.4
