          15
 frame:         6198
N     1.9   -0.4   -1.2
C     2.2    0.1    0.1
C     3.2    1.2   -0.0
C     2.8    2.6   -0.7
N     3.0    3.2    0.6
C     3.5    2.1    1.3
O     3.8    1.9    2.4
H     1.1   -1.1   -1.1
H     2.7   -0.9   -1.6
H     2.6   -0.6    0.8
H     1.3    0.5    0.5
H     4.2    0.9   -0.4
H     1.7    2.6   -1.0
H     3.4    2.9   -1.5
H     2.9    4.2    0.9
