          23
 frame:         1221
C     2.6   -0.8   -1.2
C     2.3    0.1   -0.1
C     2.9    1.5   -0.1
C     2.5    2.3   -1.3
C     2.4    2.3    1.2
C     4.5    1.4   -0.1
C     5.1    0.7    1.1
H     2.1   -1.8   -1.1
H     3.7   -1.1   -1.2
H     2.4   -0.4   -2.2
H     2.5   -0.4    0.9
H     1.2    0.2   -0.1
H     2.9    1.8   -2.2
H     2.8    3.3   -1.3
H     1.4    2.3   -1.4
H     2.6    1.8    2.1
H     1.3    2.4    1.1
H     2.9    3.3    1.2
H     4.8    2.5   -0.1
H     4.8    1.0   -1.0
H     4.9    1.2    2.1
H     6.2    0.7    1.0
H     4.8   -0.3    1.2
