          17
 frame:         4485
O     0.9    0.1    0.0
C     2.3   -0.0    0.0
C     2.9    1.4   -0.0
C     4.4    1.4    0.0
C     5.0    2.8   -0.0
C     6.4    2.9   -0.0
C     7.6    2.9    0.0
H     0.5   -0.8    0.0
H     2.7   -0.6   -0.9
H     2.7   -0.6    0.9
H     2.5    1.9    0.9
H     2.5    1.9   -0.9
H     4.8    0.9   -0.9
H     4.8    0.9    0.9
H     4.6    3.4    0.9
H     4.6    3.4   -0.9
H     8.7    2.9    0.0
