          12
 frame:         7059
C     1.0   -0.0    0.0
C     2.5    0.1    0.0
S     3.0    1.8   -0.0
O     2.6    2.4   -1.3
O     2.6    2.4    1.3
C     4.8    1.6   -0.0
N     5.9    1.5   -0.0
H     0.7   -1.1    0.0
H     0.6    0.4   -0.9
H     0.6    0.4    0.9
H     3.0   -0.3   -0.9
H     3.0   -0.3    0.9
