          16
 frame:         5046
C     0.7    0.1    0.2
C     2.1   -0.1    0.2
C     3.0    0.9   -0.1
C     4.5    0.7   -0.1
N     5.1    1.0   -1.5
C     6.0    1.9   -1.7
O     6.6    2.6   -0.9
H     0.2   -0.7   -0.4
H     0.3    1.1   -0.1
H     0.3   -0.1    1.3
H     2.5   -1.0    0.5
H     2.6    1.9   -0.4
H     4.8   -0.3    0.2
H     5.0    1.5    0.5
H     4.7    0.5   -2.2
H     6.3    1.9   -2.8
