          13
 frame:         6952
C     0.9    0.0    0.0
C     2.4    0.1    0.0
C     3.2    1.2   -0.0
S     4.9    0.7   -0.0
N     4.6   -0.9    0.0
C     3.3   -1.1    0.1
N     2.8   -2.4    0.2
H     0.5    1.0    0.0
H     0.6   -0.5    0.9
H     0.5   -0.5   -0.9
H     2.9    2.2   -0.1
H     1.9   -2.6   -0.3
H     3.5   -3.1   -0.0
