          14
 frame:         6750
O     2.8    2.4   -2.3
C     2.2    2.1   -1.2
C     2.9    1.4   -0.0
N     4.3    1.2   -0.1
C     5.1    2.5    0.1
C     6.5    2.2   -0.1
C     7.7    2.1   -0.2
H     1.1    2.3   -1.1
H     2.4    0.5    0.1
H     2.6    2.0    0.9
H     4.6    0.8   -1.0
H     4.9    2.9    1.1
H     4.8    3.3   -0.6
H     8.8    1.9   -0.3
