          15
 frame:         3111
C     1.7   -0.1   -0.1
C     0.7   -1.2    0.6
O    -0.4   -1.5   -0.3
C    -1.4   -0.5   -0.1
C    -1.3    0.8    0.1
O    -0.2    1.5    0.2
C     0.9    1.1   -0.6
H     2.3   -0.6   -0.8
H     2.4    0.2    0.7
H     1.3   -2.1    0.7
H     0.4   -0.8    1.6
H    -2.4   -1.0   -0.3
H    -2.2    1.4    0.3
H     1.6    1.9   -0.8
H     0.5    0.8   -1.6
