          17
 frame:         2225
C     2.4   -0.8    1.2
C     2.9   -0.2   -0.1
C     3.1    1.3    0.0
C     4.3    1.9   -0.2
C     4.4    3.3   -0.1
N     5.6    3.9   -0.3
N     5.7    5.2   -0.1
H     2.2   -1.9    1.1
H     1.4   -0.4    1.6
H     3.1   -0.7    2.0
H     2.1   -0.4   -0.9
H     3.8   -0.7   -0.4
H     2.2    1.9    0.3
H     5.2    1.3   -0.5
H     3.6    4.0    0.2
H     6.5    5.6   -0.7
H     4.8    5.8   -0.2
