          15
 frame:         4119
C     1.0    0.1   -0.2
O     2.4    0.0   -0.0
C     3.1    1.2   -0.1
C     4.4    1.3   -0.3
C     4.8    2.8   -0.1
O     3.6    3.5    0.1
C     2.5    2.6    0.2
H     0.6   -0.9   -0.1
H     0.8    0.5   -1.2
H     0.5    0.8    0.6
H     5.1    0.5   -0.5
H     5.5    2.9    0.7
H     5.3    3.2   -1.1
H     1.7    2.9   -0.4
H     2.1    2.6    1.3
