          20
 frame:         2376
C     0.7    0.1    0.7
C     2.2    0.0    0.8
C     2.9    1.3    0.3
N     2.6    2.5    1.2
C     4.4    1.2    0.2
C     4.9    0.2   -0.8
C     5.7   -0.9   -0.6
H     0.2   -0.9    1.0
H     0.3    0.3   -0.3
H     0.3    0.9    1.4
H     2.5   -0.8    0.1
H     2.5   -0.2    1.8
H     2.5    1.6   -0.7
H     2.9    2.3    2.1
H     1.6    2.7    1.2
H     4.8    0.9    1.2
H     4.8    2.2    0.0
H     4.5    0.4   -1.8
H     6.0   -1.1    0.4
H     6.0   -1.5   -1.4
