          13
 frame:         3566
C     1.0   -0.0    0.2
C     2.3   -0.1    0.1
C     3.0   -1.3   -0.1
C     3.7   -2.3   -0.2
C     3.2    1.2    0.1
C     2.8    2.4    0.8
O     3.9    1.5    1.3
H     0.4    0.9    0.3
H     0.4   -0.9    0.2
H     4.2   -3.2   -0.3
H     3.8    1.3   -0.8
H     1.9    2.4    1.5
H     3.1    3.4    0.5
