          18
 frame:         1665
C     1.0    0.0    0.4
C     2.5   -0.0    0.0
C     2.9   -1.4   -0.6
C     2.6   -1.1   -2.1
C     3.7   -0.4   -2.9
N     2.5    0.3   -2.4
C     2.8    1.0   -1.1
H     0.8    1.0    0.9
H     0.8   -0.8    1.2
H     0.4   -0.2   -0.4
H     3.1    0.2    0.9
H     2.3   -2.2   -0.2
H     4.0   -1.6   -0.4
H     1.9   -1.8   -2.6
H     4.7   -0.3   -2.4
H     3.7   -0.5   -4.0
H     3.8    1.4   -1.1
H     2.1    1.9   -1.0
