          15
 frame:         3429
C     0.9   -0.1    0.2
C     2.3    0.0   -0.4
O     2.7   -1.2   -1.0
C     3.5   -0.7   -2.1
C     3.3    0.6   -2.3
C     3.8    1.6   -3.3
O     2.3    1.1   -1.4
H     0.6    0.8    0.7
H     0.9   -0.9    0.9
H     0.2   -0.3   -0.6
H     3.0    0.3    0.4
H     4.1   -1.4   -2.6
H     4.3    2.4   -2.9
H     2.9    2.0   -3.9
H     4.4    1.1   -4.0
