          18
 frame:         2047
C     1.0    1.8    1.5
C     2.5    1.6    1.3
C     3.1    1.3    0.1
C     4.6    1.2   -0.1
C     5.5    2.2    0.6
N     5.8    1.3    1.7
C     5.3    0.1    0.8
H     0.8    2.8    1.9
H     0.7    1.1    2.2
H     0.5    1.6    0.5
H     3.1    1.8    2.1
H     2.5    1.2   -0.8
H     4.8    1.0   -1.2
H     5.0    3.2    0.9
H     6.4    2.5   -0.1
H     6.8    1.2    2.0
H     6.1   -0.4    0.3
H     4.7   -0.6    1.4
