          18
 frame:         4900
C     0.9    0.1    0.2
C     2.4   -0.1   -0.1
O     3.2    1.0    0.6
C     4.2   -0.0    1.1
C     5.5    0.0    0.5
C     3.2   -1.2    0.7
N     3.8   -2.3    0.1
H     0.4   -0.7   -0.3
H     0.6    1.0   -0.3
H     0.7    0.1    1.2
H     2.7   -0.1   -1.1
H     4.3    0.1    2.2
H     5.5   -0.0   -0.6
H     6.2   -0.8    0.8
H     6.0    1.0    0.7
H     2.6   -1.5    1.6
H     4.2   -2.1   -0.9
H     3.1   -3.1   -0.1
