          17
 frame:         5809
C     0.9    0.8   -0.1
N     2.3    0.7   -0.1
C     3.1    1.8    0.4
O     2.6    2.8    0.9
C     4.6    1.5    0.3
C     5.4    2.6   -0.3
N     6.8    2.4   -0.3
H     0.4    0.0    0.5
H     0.5    0.7   -1.1
H     0.6    1.8    0.3
H     2.8   -0.1   -0.5
H     4.8    0.5   -0.2
H     5.0    1.4    1.4
H     5.1    3.6    0.1
H     5.0    2.7   -1.4
H     7.2    2.4    0.6
H     7.3    3.1   -0.9
