          13
 frame:          445
C     0.8   -0.2   -0.1
C     2.4   -0.0    0.1
C     2.7    1.4    0.1
C     3.3    2.1    1.1
C     3.7    3.5    1.1
N     4.0    4.6    1.0
H     0.6   -1.3   -0.1
H     0.5    0.2   -1.1
H     0.3    0.2    0.7
H     2.9   -0.6   -0.7
H     2.7   -0.5    1.1
H     2.5    2.0   -0.8
H     3.6    1.6    2.0
