          15
 frame:         3443
C     1.0    0.2   -0.0
C     2.5   -0.1    0.1
O     3.3    1.1   -0.2
C     3.6    1.1   -1.6
O     4.5    0.0   -1.9
C     4.0   -1.2   -1.5
C     3.0   -1.3   -0.6
H     0.7    1.1    0.6
H     0.4   -0.7    0.3
H     0.8    0.4   -1.1
H     2.7   -0.2    1.2
H     4.2    2.0   -1.8
H     2.7    1.0   -2.2
H     4.5   -2.0   -2.0
H     2.6   -2.2   -0.3
