          17
 frame:         2387
C     1.5   -1.0    0.9
C     2.9   -0.7    0.5
C     3.4    0.6    0.3
N     4.6    0.9   -0.1
C     5.6   -0.1   -0.4
C     5.0    2.3   -0.1
N     4.4    3.4    0.1
H     0.9   -1.6    0.1
H     0.9   -0.1    1.1
H     1.4   -1.6    1.8
H     3.5   -1.6    0.2
H     2.7    1.4    0.6
H     5.2   -0.7   -1.2
H     5.8   -0.8    0.5
H     6.5    0.4   -0.7
H     6.1    2.4   -0.5
H     3.4    3.2    0.4
