          15
 frame:         3323
C     1.0    0.2   -0.1
C     2.5    0.0    0.1
C     3.2    0.9    1.1
O     3.8   -0.3    1.7
C     3.0   -1.2    0.9
C     3.8   -2.2    0.1
O     3.3   -3.1   -0.5
H     0.6   -0.6   -0.8
H     0.7    1.1   -0.6
H     0.4    0.1    0.8
H     3.0    0.1   -0.9
H     2.5    1.3    1.9
H     3.9    1.6    0.8
H     2.2   -1.7    1.4
H     4.9   -1.9    0.1
