          18
 frame:         5600
C     1.0   -0.0    0.0
N     2.5    0.0    0.1
C     3.1    1.1    0.9
C     4.2    0.0    1.2
C     4.8   -0.0    2.6
O     5.3    0.1    0.3
C     3.2   -1.1    0.8
H     0.7   -0.9   -0.5
H     0.7    0.9   -0.5
H     0.6   -0.1    1.1
H     2.5    1.3    1.8
H     3.4    2.0    0.4
H     4.1   -0.1    3.4
H     5.5    0.9    2.8
H     5.5   -0.9    2.7
H     4.9    0.1   -0.6
H     3.5   -1.9    0.3
H     2.6   -1.4    1.7
