          13
 frame:         2985
N     1.1   -0.3    0.3
C     2.4   -0.1    0.2
C     3.0    1.1   -0.0
C     2.3    2.4   -0.4
C     2.9    3.5   -0.7
C     4.5    1.2   -0.0
N     5.6    1.2   -0.0
H     0.8   -1.3    0.3
H     0.4    0.3   -0.0
H     3.1   -0.9    0.5
H     1.2    2.3   -0.3
H     4.0    3.7   -0.7
H     2.2    4.4   -0.9
