          17
 frame:         4191
C     0.8    0.8    0.4
O     2.1    0.5    0.2
C     2.9    1.8   -0.1
C     4.3    1.4   -0.3
C     5.2    2.6   -0.5
C     4.9    3.4   -1.8
C     4.6    3.9   -2.8
H     0.3   -0.2    0.6
H     0.3    1.2   -0.5
H     0.6    1.4    1.2
H     2.8    2.5    0.8
H     2.5    2.2   -1.0
H     4.4    0.7   -1.1
H     4.7    0.9    0.6
H     6.3    2.3   -0.6
H     5.1    3.3    0.3
H     4.4    4.4   -3.7
