          14
 frame:          662
C     0.8    1.4   -0.6
C    -0.3    0.9    0.3
C    -1.4   -0.1   -0.3
O    -0.6   -1.0   -1.0
C     0.7   -1.2   -0.3
C     1.0    0.2    0.3
H     0.7    1.2   -1.7
H     1.3    2.3   -0.3
H    -0.7    1.5    1.1
H    -1.9   -0.5    0.5
H    -2.0    0.4   -1.1
H     0.6   -1.9    0.5
H     1.4   -1.5   -1.0
H     1.7    0.2    1.1
