          12
 frame:         6868
O     0.7    0.9    0.3
N     2.0    0.5    0.2
C     2.9    1.5    0.2
C     4.3    1.3    0.1
C     5.2    2.2   -0.0
C     6.6    1.9   -0.1
O     7.5    2.7   -0.2
H     0.2    0.1    0.4
H     2.5    2.6    0.1
H     4.6    0.2    0.1
H     4.9    3.3   -0.0
H     6.8    0.8   -0.1
