          21
 frame:         1211
C     2.3   -0.4   -1.4
C     2.5    0.0    0.0
C     3.2   -1.1    0.8
C     3.3    1.4    0.1
C     2.6    2.6   -0.5
C     3.2    3.5    0.6
C     3.4    2.1    1.4
H     1.8    0.3   -2.0
H     1.7   -1.4   -1.5
H     3.3   -0.6   -1.9
H     1.5    0.2    0.4
H     4.2   -1.3    0.5
H     2.6   -2.0    0.8
H     3.3   -0.7    1.9
H     4.3    1.2   -0.4
H     1.5    2.6   -0.5
H     2.9    2.9   -1.6
H     4.2    3.9    0.4
H     2.6    4.2    1.1
H     4.3    2.0    2.0
H     2.5    1.9    2.0
