          17
 frame:         5844
C     3.5   -1.7   -0.4
N     4.4   -0.7   -0.6
N     3.9    0.6   -0.5
C     4.7    1.6   -0.2
C     4.2    3.0   -0.2
O     4.3    3.6    1.1
C     3.3    3.1    2.0
H     3.9   -2.7   -0.7
H     2.6   -1.6   -1.1
H     3.1   -1.8    0.7
H     5.3   -0.8   -0.1
H     5.8    1.4    0.1
H     3.2    3.0   -0.6
H     4.8    3.6   -0.8
H     3.5    3.6    3.0
H     3.5    2.0    2.2
H     2.3    3.3    1.7
