          13
 frame:         5830
C     1.4   -0.4   -0.3
N     2.7   -0.3   -0.1
N     3.2    1.0   -0.4
C     4.2    1.3    0.3
C     4.8    2.6    0.1
C     5.5    3.3    1.2
O     6.3    2.7    0.2
H     1.0   -1.4   -0.1
H     0.8    0.4   -0.6
H     4.7    0.6    1.0
H     4.4    3.3   -0.7
H     5.5    2.8    2.2
H     5.5    4.4    1.3
