          15
 frame:          586
N     1.0   -0.1   -0.1
C     2.5   -0.1   -0.0
C     3.2   -0.8   -1.1
C     3.2    0.7   -1.0
C     4.5    1.5   -0.6
C     5.7    1.0   -0.4
H     0.6    0.7    0.5
H     0.6   -0.9    0.2
H     3.0   -0.2    1.0
H     2.6   -1.2   -2.0
H     4.1   -1.3   -0.9
H     2.6    1.3   -1.7
H     4.3    2.6   -0.5
H     5.9   -0.1   -0.6
H     6.5    1.6   -0.1
