          20
 frame:         1940
C     0.6    0.2    0.4
C     1.8    0.1   -0.5
C     2.9    1.0   -0.1
C     3.6    0.8    1.2
C     4.2   -0.5    1.4
C     3.8    1.6   -1.2
N     2.7    2.4   -0.6
H    -0.2   -0.4    0.1
H     0.2    1.3    0.5
H     0.8   -0.1    1.5
H     1.5    0.4   -1.5
H     2.1   -0.9   -0.5
H     2.8    1.0    2.0
H     4.4    1.6    1.4
H     3.5   -1.3    1.4
H     4.7   -0.6    2.4
H     5.0   -0.7    0.6
H     3.6    1.3   -2.3
H     4.8    1.8   -1.0
H     3.2    3.1    0.1
