          13
 frame:          149
C     0.9    0.0    0.1
C     2.4    0.0    0.2
C     3.2    1.1   -0.2
C     4.7    1.1   -0.0
O     5.3    1.2   -1.3
H     0.6   -0.8   -0.6
H     0.5    0.9   -0.3
H     0.4   -0.2    1.1
H     2.9   -0.9    0.6
H     2.7    2.0   -0.6
H     5.0    0.1    0.5
H     5.0    1.9    0.6
H     4.9    0.6   -1.9
