          17
 frame:         3292
C     1.1    0.1   -0.4
C     2.5   -0.1    0.1
C     2.8   -1.4    0.9
C     3.6   -1.0    2.2
O     5.0   -1.3    2.0
C     3.4    0.5    2.3
C     2.9    1.0    1.1
H     0.8   -0.7   -1.1
H     0.9    1.0   -0.9
H     0.3    0.0    0.4
H     3.2    0.0   -0.7
H     3.2   -2.2    0.3
H     1.8   -1.7    1.3
H     3.3   -1.5    3.1
H     5.4   -0.7    1.4
H     3.8    1.1    3.1
H     2.7    2.1    0.9
