          15
 frame:         3799
C     0.5    0.3   -0.0
C     2.0    0.1    0.3
C     3.0    0.8   -0.2
C     4.5    0.6    0.1
O     5.3    0.5   -1.1
C     4.9    1.8    0.9
O     5.9    2.5    0.6
H     0.1   -0.6   -0.4
H     0.4    1.1   -0.8
H    -0.0    0.5    0.9
H     2.2   -0.7    1.0
H     2.8    1.6   -1.0
H     4.5   -0.3    0.8
H     5.9    1.1   -1.0
H     4.4    2.0    1.9
