          17
 frame:         5213
C     0.8   -0.1   -0.1
C     2.3   -0.1   -0.1
C     2.9   -0.9   -1.3
N     2.6   -2.3   -1.3
O     2.8    1.2   -0.1
N     4.1    1.3    0.3
C     4.5    2.5    0.3
H     0.4    0.3    0.8
H     0.4   -1.1   -0.2
H     0.4    0.5   -1.0
H     2.7   -0.6    0.8
H     4.0   -0.6   -1.4
H     2.4   -0.4   -2.2
H     3.2   -2.8   -0.6
H     2.8   -2.7   -2.2
H     5.6    2.6    0.7
H     4.0    3.4    0.0
