          18
 frame:         5115
C     1.2   -0.5    1.1
C     2.7   -0.6    0.7
C     3.1    0.4   -0.3
C     4.5    0.2   -0.8
O     5.0   -0.9   -1.2
N     5.3    1.3   -0.8
C     6.7    1.3   -1.3
H     0.9   -1.2    1.9
H     0.6   -0.6    0.2
H     1.0    0.5    1.5
H     2.9   -1.6    0.3
H     3.3   -0.5    1.6
H     3.0    1.4    0.0
H     2.5    0.3   -1.2
H     4.9    2.2   -0.6
H     7.0    0.2   -1.6
H     7.4    1.6   -0.6
H     6.8    1.9   -2.2
