          15
 frame:         4292
O     1.0    0.1   -0.0
C     2.4   -0.0   -0.0
C     3.0   -1.2    0.9
C     3.8   -0.3    1.9
C     4.5    0.8    0.9
C     3.0    1.2    0.8
O     2.8    0.8    2.2
H     0.6   -0.7   -0.5
H     2.8   -0.1   -1.1
H     3.7   -1.9    0.3
H     2.2   -1.7    1.4
H     4.3   -0.7    2.7
H     5.1    0.4    0.0
H     5.1    1.5    1.5
H     2.7    2.2    0.5
