          19
 frame:          482
C     0.9   -0.1   -0.0
C     2.4   -0.2    0.1
C     3.1    1.1   -0.3
N     4.6    1.1   -0.0
C     5.3    0.1   -0.9
C     5.1    2.4   -0.2
H     0.4   -1.1    0.3
H     0.6    0.1   -1.1
H     0.5    0.7    0.6
H     2.8   -1.1   -0.5
H     2.7   -0.4    1.2
H     2.7    1.9    0.3
H     2.9    1.2   -1.4
H     5.0   -0.9   -0.7
H     6.4    0.2   -0.6
H     5.2    0.3   -1.9
H     4.6    3.1    0.5
H     5.0    2.8   -1.2
H     6.2    2.4    0.1
