          17
 frame:         3379
C     0.9   -0.3   -0.1
C     2.4   -0.2   -0.2
O     3.0   -0.2   -1.6
C     3.1    1.0   -0.8
C     4.5    1.4   -0.4
C     4.5    2.5    0.6
C     5.1    2.5    1.8
H     0.6    0.1    0.9
H     0.6   -1.3   -0.2
H     0.4    0.3   -0.8
H     3.0   -0.7    0.5
H     2.5    1.8   -1.2
H     5.0    1.8   -1.4
H     5.1    0.6   -0.1
H     4.0    3.5    0.3
H     5.6    1.6    2.1
H     5.1    3.3    2.5
