          16
 frame:         1804
C     0.9   -0.0    0.2
C     2.4   -0.0   -0.1
C     3.2    1.1    0.7
N     3.6   -0.0    1.7
C     3.3   -1.1    0.7
C     2.6    0.0   -1.6
C     2.8    0.0   -2.8
H     0.8   -0.0    1.3
H     0.5   -0.9   -0.2
H     0.4    0.9   -0.1
H     2.7    1.9    1.1
H     4.1    1.4    0.1
H     4.5   -0.0    2.0
H     4.1   -1.4    0.1
H     2.7   -1.9    1.1
H     3.0    0.1   -3.8
