          18
 frame:         6109
N     0.8    0.4   -0.7
C     2.1    0.2   -0.1
C     2.1    0.3    1.4
C     0.9   -0.1    2.1
O     0.4   -1.4    1.6
C     2.9   -1.0   -0.7
C     3.4    0.5   -0.9
H     0.8    0.2   -1.7
H     0.5    1.4   -0.6
H     2.3    1.4    1.6
H     3.0   -0.2    1.8
H     0.1    0.6    2.0
H     1.1   -0.2    3.2
H     0.2   -1.3    0.7
H     2.5   -1.5   -1.6
H     3.4   -1.6   -0.1
H     4.3    0.8   -0.4
H     3.3    0.9   -1.9
