          17
 frame:         2561
C     0.9    0.2    0.5
C     2.3    0.1   -0.1
N     2.3   -0.4   -1.5
N     1.8   -1.6   -1.6
C     2.2   -2.3   -2.7
C     2.9    1.5   -0.1
C     4.0    1.9    0.6
H     0.9    0.5    1.6
H     0.5   -0.8    0.4
H     0.3    0.9   -0.1
H     3.0   -0.5    0.6
H     3.2   -0.2   -2.0
H     1.7   -3.3   -2.8
H     2.9   -1.9   -3.4
H     2.4    2.3   -0.7
H     4.6    1.1    1.2
H     4.4    2.9    0.5
