          17
 frame:         2835
N     1.1    0.1    0.5
C     2.5    0.0    0.1
C     2.8   -1.3   -0.7
C     2.7   -1.0   -2.2
N     3.8   -0.3   -2.8
C     2.7    0.5   -2.3
C     2.8    1.1   -1.0
H     0.9    0.9    1.0
H     0.9   -0.7    1.2
H     3.2    0.1    0.9
H     2.0   -2.1   -0.4
H     3.8   -1.8   -0.4
H     2.1   -1.7   -2.8
H     4.6   -0.2   -2.1
H     2.1    1.0   -3.1
H     3.8    1.6   -0.8
H     2.0    1.9   -0.9
