          15
 frame:         3127
C    -1.2   -0.0    1.1
C    -0.6   -1.0    0.0
C     0.9   -1.2    0.3
O     1.4   -0.0    0.8
C     0.9    1.2    0.3
C    -0.6    1.0    0.0
O    -0.8    0.0   -1.0
H    -0.8   -0.0    2.1
H    -2.3   -0.0    1.0
H    -1.1   -1.9   -0.2
H     1.1   -2.0    1.0
H     1.4   -1.5   -0.7
H     1.4    1.5   -0.7
H     1.1    2.0    1.1
H    -1.1    1.9   -0.2
