          15
 frame:         3326
C     1.0   -0.1   -0.1
C     2.5    0.1    0.0
C     3.2    1.2   -0.4
O     4.6    1.1   -0.1
C     4.8   -0.1    0.4
C     4.5   -1.4   -0.4
C     3.5   -0.9    0.6
H     0.8   -0.9   -0.7
H     0.5    0.8   -0.5
H     0.6   -0.3    0.9
H     2.9    2.1   -0.9
H     5.6   -0.1    1.1
H     5.1   -2.2   -0.2
H     4.3   -1.2   -1.5
H     3.2   -1.5    1.4
