          17
 frame:         4522
O     2.6   -1.1    0.4
C     2.4    0.1   -0.5
C     3.1    1.2    0.3
O     2.4    1.4    1.6
C     4.6    1.1    0.4
C     5.5    1.7   -0.7
C     5.4    2.4    0.7
H     2.0   -1.8    0.0
H     1.4    0.3   -0.6
H     3.0   -0.1   -1.4
H     2.8    2.2   -0.3
H     2.4    0.5    1.9
H     4.9    0.2    0.9
H     5.0    2.2   -1.5
H     6.4    1.2   -0.9
H     6.2    2.3    1.4
H     4.8    3.3    0.8
