          15
 frame:         3714
C     0.9   -0.1    0.1
C     2.4    0.0    0.1
C     3.1    1.1   -0.1
C     2.5    2.5   -0.2
C     4.6    1.1    0.0
O     5.2   -0.0   -0.3
O     5.2    2.1    0.4
H     0.6   -0.9   -0.6
H     0.3    0.8   -0.1
H     0.5   -0.5    1.1
H     2.9   -0.9    0.4
H     1.4    2.5   -0.2
H     2.8    2.9   -1.2
H     2.9    3.2    0.5
H     4.5   -0.6   -0.7
