          17
 frame:         2228
C     3.4   -0.4   -1.6
C     3.0    0.2   -0.2
C     3.3    1.6    0.0
C     2.3    2.6    0.1
C     4.8    2.0    0.1
N     5.0    3.3   -0.4
N     5.7    1.3    0.6
H     3.2   -1.4   -1.7
H     4.5   -0.2   -1.7
H     2.9    0.2   -2.4
H     3.5   -0.4    0.6
H     1.9    0.0   -0.1
H     1.3    2.3    0.1
H     2.6    3.6    0.3
H     4.5    3.6   -1.2
H     6.0    3.5   -0.4
H     5.3    0.4    1.0
