          16
 frame:          723
C     3.1   -1.2   -0.5
C     2.4    0.0    0.1
C     3.3    1.2    0.2
O     4.4    1.1    1.0
C     3.5    2.1   -1.0
C     2.7    2.6    0.1
H     2.4   -2.1   -0.5
H     4.0   -1.5    0.1
H     3.4   -1.0   -1.5
H     2.0   -0.2    1.1
H     1.5    0.3   -0.5
H     4.1    1.0    2.0
H     3.0    1.8   -1.9
H     4.5    2.5   -1.1
H     3.1    3.4    0.8
H     1.6    2.7    0.0
