          17
 frame:         2609
C     1.2    0.0   -0.1
N     2.5   -0.1    0.6
C     3.3   -1.2    0.1
C     4.7   -0.7    0.5
C     4.5    0.8    0.5
C     5.6    1.8    0.5
N     3.2    1.1    0.5
H     0.6   -0.8    0.2
H     1.3    0.1   -1.2
H     0.7    0.9    0.3
H     3.2   -1.3   -1.0
H     3.0   -2.2    0.6
H     5.5   -1.1   -0.2
H     5.0   -1.1    1.5
H     5.1    2.8    0.5
H     6.3    1.7   -0.3
H     6.2    1.7    1.4
