          18
 frame:         5681
C     0.9   -0.4   -0.2
N     2.3   -0.2   -0.4
C     2.8   -1.0   -1.6
C     2.7    1.2   -0.5
C     4.2    1.5   -0.3
C     4.9    0.7    0.7
O     4.7    2.3   -1.0
H     0.6    0.1    0.7
H     0.7   -1.5   -0.1
H     0.2   -0.0   -1.0
H     2.5   -2.0   -1.5
H     3.8   -0.9   -1.7
H     2.3   -0.6   -2.5
H     2.2    1.7    0.3
H     2.3    1.6   -1.4
H     4.5    1.0    1.7
H     6.0    0.9    0.7
H     4.7   -0.4    0.7
