          16
 frame:         6296
N     4.1   -2.1   -0.2
C     3.8   -0.9    0.7
C     3.1    0.1   -0.1
C     3.5    1.4   -0.3
O     2.8    2.3   -1.0
C     3.3    3.5   -1.2
C     2.7    4.5   -1.9
H     4.6   -2.8    0.4
H     4.7   -1.9   -0.9
H     4.8   -0.4    1.1
H     3.2   -1.2    1.5
H     2.1   -0.2   -0.6
H     4.5    1.7    0.1
H     4.3    3.7   -0.8
H     1.7    4.3   -2.4
H     3.2    5.5   -2.0
