          16
 frame:         6008
C     2.7    0.3   -1.6
O     2.9   -0.2   -0.2
C     3.0    0.9    0.7
O     4.2    1.5    0.8
N     4.2    2.6   -0.1
C     5.4    3.2   -0.1
C     5.6    4.4   -0.9
H     2.5   -0.7   -2.1
H     3.6    0.8   -1.9
H     1.9    0.9   -1.6
H     2.8    0.4    1.7
H     2.2    1.6    0.6
H     6.2    2.8    0.5
H     4.7    4.7   -1.4
H     6.4    4.3   -1.7
H     5.9    5.3   -0.3
