          19
 frame:         3895
C     3.2   -1.2   -0.8
C     2.7   -0.2    0.1
C     3.1    1.2   -0.0
O     2.4    2.1    0.8
C     4.7    1.4    0.2
C     5.1    1.1    1.6
C     5.4    2.0    2.5
H     2.8   -2.2   -0.7
H     4.3   -1.3   -0.7
H     3.1   -0.9   -1.9
H     2.9   -0.5    1.2
H     1.6   -0.2    0.1
H     2.9    1.6   -1.1
H     2.8    2.0    1.7
H     4.9    2.5   -0.1
H     5.2    0.8   -0.6
H     5.2    0.1    1.8
H     5.3    3.1    2.3
H     5.7    1.7    3.5
