          12
 frame:         2570
C     1.0    0.7   -0.1
C     2.5    0.4    0.1
N     3.0   -0.8    0.3
N     2.0   -1.8    0.3
C     2.5   -3.0    0.6
C     3.4    1.4   -0.0
N     4.1    2.4   -0.1
H     0.9    1.8   -0.3
H     0.4    0.4    0.7
H     0.6    0.1   -1.0
H     1.9   -3.8    0.6
H     3.6   -3.1    0.7
