          16
 frame:          389
C     0.9    0.1    0.1
C     2.5   -0.0    0.0
N     3.2    1.0    0.8
C     4.2   -0.0    1.3
C     3.2   -1.1    0.8
N     3.8   -2.3    0.1
H     0.5   -0.8   -0.5
H     0.6    1.0   -0.3
H     0.6   -0.0    1.1
H     2.8    0.0   -1.0
H     2.6    1.3    1.6
H     5.1    0.0    0.7
H     4.4    0.0    2.3
H     2.6   -1.5    1.6
H     4.3   -2.0   -0.7
H     3.1   -3.0   -0.1
