          15
 frame:         3349
C     1.0   -0.0    0.2
C     2.4    0.0   -0.1
C     3.3   -1.0   -0.3
O     4.6   -0.6   -0.5
C     4.7    0.8   -0.4
C     5.8    1.4   -0.6
C     3.2    1.3   -0.2
H     0.6   -1.1    0.2
H     0.4    0.5   -0.6
H     0.7    0.5    1.1
H     3.1   -2.1   -0.3
H     6.7    0.9   -0.8
H     5.8    2.5   -0.6
H     2.9    2.0   -1.0
H     3.2    1.9    0.8
