          13
 frame:         4068
C     1.1   -0.3    0.7
C     2.5   -0.8    0.4
O     2.9   -1.9    0.5
C     3.5    0.3   -0.1
O     3.1    1.5   -0.2
C     4.9   -0.1   -0.4
C     5.8    0.8   -0.8
H     1.1    0.4    1.5
H     0.5   -1.2    1.0
H     0.7    0.2   -0.1
H     5.1   -1.1   -0.2
H     5.5    1.9   -0.9
H     6.8    0.5   -1.0
