          15
 frame:         1862
C     1.0   -0.0   -0.0
N     2.4    0.0    0.0
C     3.2    1.1    0.0
C     4.5    0.7    0.0
C     5.8    1.5    0.0
C     4.4   -0.7    0.0
N     3.1   -1.1    0.0
H     0.6    1.0   -0.0
H     0.6   -0.6    0.9
H     0.6   -0.5   -0.9
H     2.8    2.1    0.0
H     5.6    2.6    0.0
H     6.4    1.3   -0.8
H     6.4    1.3    0.9
H     5.2   -1.5    0.0
