          12
 frame:         6415
N     2.0   -0.8    1.1
C     2.5   -0.3   -0.1
O     2.5   -0.8   -1.2
C     3.1    1.1    0.1
O     2.8    1.7    1.4
C     4.6    1.0    0.0
C     5.8    1.0   -0.0
H     1.9   -0.2    1.9
H     1.5   -1.7    1.0
H     2.8    1.7   -0.7
H     3.5    2.2    1.7
H     6.9    0.9   -0.1
