          13
 frame:         5848
C     0.8   -0.1   -0.1
N     2.3   -0.0    0.1
N     3.0   -1.2    0.1
C     3.0    1.1    0.1
O     4.2    1.1    0.1
C     2.3    2.4   -0.0
C     1.8    3.5   -0.1
H     0.4    0.9   -0.1
H     0.3   -0.7    0.6
H     0.7   -0.6   -1.1
H     2.9   -1.6    1.0
H     4.0   -0.9   -0.1
H     1.4    4.5   -0.2
