          13
 frame:         1058
C     1.0    0.1   -0.1
N     2.4    0.1   -0.0
C     3.1   -1.1   -0.1
C     2.6   -2.3   -0.3
C     3.1    1.3    0.1
O     2.6    2.4    0.2
H     0.7    1.1   -0.0
H     0.6   -0.5    0.7
H     0.7   -0.3   -1.1
H     4.2   -1.0   -0.1
H     1.5   -2.5   -0.4
H     3.3   -3.2   -0.4
H     4.2    1.1    0.2
