          18
 frame:         2071
C     0.9   -0.0   -0.3
C     2.4   -0.3    0.0
C     2.5   -1.5    0.9
C     3.4    0.5   -0.4
C     4.8    0.3   -0.1
C     5.8    0.5   -1.2
N     5.6    1.6   -0.2
H     0.9    0.9   -1.0
H     0.3    0.1    0.5
H     0.5   -0.9   -0.9
H     1.9   -1.4    1.8
H     3.6   -1.7    1.2
H     2.2   -2.4    0.4
H     3.1    1.3   -1.1
H     5.1   -0.4    0.6
H     5.5    0.8   -2.2
H     6.7   -0.1   -1.2
H     6.4    1.5    0.5
