          19
 frame:         4205
C     1.5    0.8    2.4
O     2.3    1.9    2.2
C     2.6    2.2    0.9
C     1.4    2.7    0.1
C     3.9    3.2    0.9
C     3.6    4.5    1.6
O     3.5    4.3    3.1
H     1.4    0.6    3.5
H     1.9   -0.1    1.9
H     0.4    1.0    2.0
H     3.0    1.2    0.4
H     1.1    3.6    0.6
H     0.6    2.0    0.0
H     1.7    3.0   -0.9
H     4.1    3.4   -0.1
H     4.7    2.6    1.4
H     2.7    5.0    1.2
H     4.5    5.1    1.5
H     3.0    3.5    3.2
