          14
 frame:         6390
N     1.8    0.8   -1.1
C     2.9    0.0   -1.0
O     3.5   -0.4   -2.0
C     3.3   -0.4    0.4
C     4.8   -0.4    0.6
C     5.5    0.7    1.3
O     5.2   -0.6    2.0
H     1.2    1.1   -0.3
H     1.4    1.1   -2.0
H     2.9   -1.4    0.6
H     2.8    0.2    1.2
H     5.3   -1.0   -0.1
H     4.9    1.5    1.6
H     6.5    0.9    1.0
