          20
 frame:         2053
C     1.2    0.1    0.2
C     2.7   -0.0   -0.1
C     2.8   -0.7   -1.5
C     3.4    1.3   -0.1
N     3.7    2.0    1.1
C     4.8    1.4    0.2
C     5.7    2.4   -0.4
H     1.1    0.7    1.2
H     0.7   -0.8    0.3
H     0.7    0.7   -0.6
H     3.1   -0.7    0.7
H     2.4   -0.1   -2.3
H     2.3   -1.7   -1.5
H     3.9   -0.9   -1.7
H     3.0    2.0   -0.9
H     3.6    1.3    1.9
H     5.3    0.5    0.6
H     5.2    3.3   -0.7
H     6.2    2.0   -1.3
H     6.5    2.7    0.3
