          17
 frame:         5122
C     1.3    0.3    1.6
C     1.9    0.6    0.2
C     2.8    1.8    0.2
C     2.2    3.2    0.5
O     2.4    4.1   -0.5
N     4.0    1.7   -0.1
N     4.8    2.8   -0.1
H     0.6   -0.6    1.5
H     0.7    1.1    2.0
H     2.1    0.0    2.3
H     1.1    0.8   -0.5
H     2.5   -0.2   -0.2
H     2.6    3.6    1.5
H     1.1    3.1    0.7
H     3.3    4.0   -0.8
H     5.8    2.5   -0.1
H     4.7    3.4    0.8
