          17
 frame:         3427
C     1.1    0.2    0.1
C     2.6   -0.1    0.1
O     3.3    1.1   -0.2
C     3.6    1.2   -1.6
C     4.4    0.0   -2.1
C     3.9   -1.3   -1.6
C     3.0   -1.3   -0.6
H     0.8    1.1    0.7
H     0.5   -0.7    0.4
H     0.7    0.4   -1.0
H     2.8   -0.2    1.2
H     4.0    2.2   -1.8
H     2.6    1.2   -2.2
H     5.5    0.1   -1.8
H     4.5    0.0   -3.2
H     4.2   -2.2   -2.1
H     2.6   -2.2   -0.3
