          15
 frame:         3561
C     0.9   -0.0    0.0
C     2.4    0.0    0.0
C     3.6    0.1   -0.0
C     5.1    0.1   -0.0
O     5.8   -0.5   -1.1
C     5.8    0.9   -1.0
C     7.2    1.4   -0.7
H     0.5    1.0   -0.0
H     0.6   -0.5    0.9
H     0.6   -0.6   -0.8
H     5.5   -0.1    0.9
H     5.2    1.4   -1.7
H     7.7    0.8    0.1
H     7.1    2.5   -0.3
H     7.8    1.5   -1.5
