          20
 frame:         2631
C     2.8   -1.0   -0.7
N     2.3    0.2   -0.1
C     3.3    1.3    0.0
C     3.5    2.3   -1.1
C     2.6    2.3   -2.3
C     2.9    2.7    0.3
C     3.6    3.6    1.2
H     1.9   -1.7   -0.7
H     3.6   -1.4   -0.2
H     3.0   -0.8   -1.7
H     1.9    0.1    0.8
H     4.2    0.9    0.5
H     4.5    2.6   -1.2
H     1.6    1.8   -2.1
H     3.0    1.7   -3.1
H     2.4    3.3   -2.7
H     1.8    2.8    0.3
H     4.7    3.4    1.2
H     3.3    3.4    2.3
H     3.5    4.7    1.0
