          15
 frame:         3298
C     1.0   -0.1    0.0
C     2.5    0.0    0.1
C     3.2    1.1   -0.2
C     4.7    1.2   -0.0
O     5.2   -0.0    0.6
C     4.5   -1.1    0.1
O     3.1   -1.1    0.4
H     0.7   -0.8   -0.7
H     0.5    0.9   -0.2
H     0.6   -0.4    1.0
H     2.7    2.0   -0.5
H     5.2    1.3   -1.0
H     5.0    2.0    0.7
H     4.9   -2.0    0.6
H     4.6   -1.2   -1.0
