          21
 frame:         3694
C     0.9    1.9    1.1
C     2.4    2.1    1.1
C     3.1    1.5   -0.1
C     4.7    1.5   -0.1
C     5.2    0.7   -1.2
C     5.2    2.9   -0.1
O     6.7    3.0    0.1
H     0.4    2.3    2.0
H     0.6    0.9    0.9
H     0.5    2.5    0.2
H     2.8    1.5    2.0
H     2.7    3.1    1.3
H     2.8    2.1   -1.0
H     2.8    0.5   -0.3
H     5.0    1.0    0.9
H     4.9    1.1   -2.2
H     4.9   -0.4   -1.2
H     6.3    0.7   -1.2
H     4.8    3.5    0.7
H     5.0    3.4   -1.0
H     6.9    2.6    1.0
