          19
 frame:         2007
C     2.4   -0.5   -1.6
C     2.5    0.0   -0.1
C     3.3    1.3   -0.0
N     2.8    2.5   -0.7
C     3.2    3.3    0.6
C     3.4    2.0    1.4
N     4.6    1.9    2.3
H     1.7   -1.4   -1.6
H     3.3   -0.8   -2.0
H     1.9    0.3   -2.2
H     2.9   -0.8    0.5
H     1.5    0.2    0.3
H     4.3    1.1   -0.4
H     1.8    2.5   -0.7
H     4.2    3.8    0.4
H     2.5    4.0    1.0
H     2.5    1.8    2.0
H     5.4    2.0    1.7
H     4.6    1.0    2.8
