          15
 frame:         5376
C     2.2   -0.1    1.4
C     2.1    0.6    0.1
N     3.1    1.7   -0.1
C     2.8    3.0    0.4
N     1.7    3.4    1.0
C     4.3    1.5   -0.7
O     4.6    0.4   -1.1
H     1.5   -0.9    1.5
H     2.0    0.6    2.3
H     3.2   -0.6    1.6
H     1.1    1.0   -0.1
H     2.3   -0.1   -0.7
H     3.6    3.7    0.2
H     1.0    2.7    1.2
H     4.9    2.4   -0.7
