          13
 frame:          995
C     1.0    0.1    0.1
C     2.5   -0.1   -0.0
C     3.2   -1.3    0.1
C     3.2    1.2   -0.2
N     4.5    1.2   -0.3
O     5.0    2.5   -0.6
H     0.7    0.7    0.9
H     0.6   -0.9    0.2
H     0.6    0.5   -0.9
H     2.6   -2.2    0.3
H     4.2   -1.3    0.1
H     2.7    2.1   -0.4
H     5.9    2.5   -0.6
