          15
 frame:         1094
N     0.8    0.3   -0.2
C     2.3    0.1    0.1
C     2.6    0.1    1.6
O     1.8   -0.9    2.2
C     3.1   -0.8   -0.9
C     3.3    0.7   -0.9
H     0.6   -0.1   -1.1
H     0.6    1.2   -0.1
H     2.4    1.1    2.0
H     3.6   -0.1    1.7
H     0.9   -0.9    1.8
H     2.5   -1.2   -1.7
H     3.8   -1.4   -0.4
H     4.2    1.1   -0.4
H     3.0    1.3   -1.7
