          18
 frame:         5907
C     1.9    2.2   -2.0
O     3.2    2.2   -1.5
C     3.3    1.5   -0.3
C     4.7    1.4    0.2
N     5.8    1.3   -0.7
C     5.7    2.6   -0.0
C     6.7    2.9    1.0
H     1.9    2.8   -3.0
H     1.2    2.7   -1.3
H     1.5    1.2   -2.2
H     2.9    0.4   -0.4
H     2.6    1.9    0.5
H     4.8    0.9    1.1
H     5.5    1.4   -1.7
H     5.2    3.4   -0.6
H     7.1    2.0    1.5
H     6.3    3.7    1.7
H     7.6    3.4    0.5
