          20
 frame:         5332
C     1.3   -0.8   -0.1
C     2.8   -0.7   -0.5
N     3.1   -1.0   -1.9
C     3.4    0.7   -0.1
C     4.9    0.9   -0.3
C     5.7    0.1    0.7
O     5.5    0.5    2.0
H     1.1   -0.6    1.0
H     0.9   -1.8   -0.3
H     0.7   -0.0   -0.6
H     3.3   -1.4    0.1
H     2.5   -0.4   -2.5
H     2.7   -1.9   -2.1
H     3.1    0.9    0.9
H     2.8    1.5   -0.7
H     5.1    1.9   -0.3
H     5.1    0.5   -1.4
H     6.8    0.2    0.4
H     5.5   -1.0    0.6
H     5.7    1.4    2.1
