          18
 frame:         1631
C     1.4   -0.2   -0.4
C     2.8    0.1    0.1
C     3.7   -1.0    0.6
C     4.0   -0.4   -0.7
C     5.1    0.7   -0.6
N     4.3    1.9   -0.2
C     3.1    1.5    0.6
H     1.1    0.5   -1.2
H     0.7   -0.1    0.4
H     1.3   -1.2   -0.9
H     3.3   -2.0    0.6
H     4.3   -0.8    1.5
H     4.0   -1.0   -1.6
H     5.9    0.5    0.1
H     5.5    0.9   -1.6
H     4.9    2.6    0.3
H     3.3    1.5    1.7
H     2.3    2.2    0.4
