          15
 frame:         3136
C     1.6   -0.2   -0.1
O     0.8   -1.2    0.5
C    -0.3   -1.5   -0.4
C    -1.5   -0.5   -0.2
C    -1.4    0.8    0.2
C    -0.1    1.5    0.4
O     0.9    1.0   -0.5
H     2.2   -0.5   -0.9
H     2.3    0.1    0.8
H    -0.7   -2.5   -0.1
H    -0.0   -1.5   -1.5
H    -2.5   -0.9   -0.3
H    -2.3    1.3    0.4
H     0.3    1.4    1.4
H    -0.2    2.5    0.1
