          13
 frame:         6866
O     2.2   -0.5    1.5
N     2.5    0.2    0.3
C     2.8   -0.6   -0.8
C     4.0   -1.5   -0.6
C     4.9   -2.1   -0.3
C     3.3    1.4    0.6
N     3.6    1.9    1.7
H     3.0   -1.0    1.7
H     3.0    0.1   -1.7
H     1.9   -1.2   -1.0
H     5.8   -2.8   -0.0
H     3.6    1.8   -0.3
H     3.2    1.4    2.5
