          20
 frame:         2478
C     2.9   -0.9   -0.8
C     2.5   -0.1    0.4
N     2.9   -0.7    1.7
C     3.1    1.4    0.3
C     2.4    2.3    1.3
C     4.6    1.4    0.5
C     5.5    1.7   -0.5
H     2.6   -0.5   -1.8
H     2.5   -1.9   -0.8
H     4.0   -1.0   -0.9
H     1.4    0.0    0.4
H     3.9   -1.0    1.6
H     2.4   -1.5    1.8
H     2.9    1.7   -0.8
H     2.6    1.9    2.3
H     1.3    2.3    1.1
H     2.8    3.3    1.2
H     5.0    1.2    1.5
H     5.2    2.0   -1.5
H     6.6    1.8   -0.3
