          17
 frame:         1505
C     1.0   -0.0   -0.1
C     2.5   -0.1    0.0
C     3.2    1.3   -0.0
C     4.7    1.2    0.1
C     5.4    1.7    1.1
C     5.4    0.6   -1.1
C     5.9    0.1   -2.0
H     0.6   -1.0   -0.1
H     0.7    0.5   -1.0
H     0.6    0.6    0.7
H     2.9   -0.7   -0.8
H     2.8   -0.6    0.9
H     2.8    1.9    0.8
H     2.9    1.8   -0.9
H     4.9    2.2    1.9
H     6.5    1.7    1.1
H     6.4   -0.3   -2.9
