          15
 frame:          392
C     1.0    0.1   -0.3
C     2.5   -0.0    0.1
N     2.7   -1.2    1.0
C     3.6   -0.9    2.1
C     3.5    0.6    2.1
C     2.9    1.1    1.1
H     0.7   -0.8   -0.9
H     0.8    1.0   -0.9
H     0.3    0.1    0.6
H     3.1    0.0   -0.8
H     3.1   -2.0    0.4
H     4.7   -1.2    1.9
H     3.3   -1.4    3.0
H     4.0    1.2    2.9
H     2.7    2.2    0.8
