          15
 frame:         3172
C     1.0   -0.1    0.3
C     2.4    0.1   -0.1
C     3.2    1.2   -0.3
C     4.6    0.8   -0.6
C     5.2    0.1    0.6
C     4.5   -0.8   -0.4
O     3.1   -1.1   -0.1
H     0.5   -0.8   -0.4
H     0.5    0.9    0.2
H     0.9   -0.5    1.3
H     2.8    2.2   -0.4
H     5.2    1.2   -1.3
H     6.3   -0.0    0.6
H     4.8    0.2    1.6
H     5.0   -1.5   -1.0
