          13
 frame:         4341
O     0.9    0.1    0.0
C     2.1    0.1    0.0
C     2.8   -1.3    0.1
C     4.3   -1.2    0.0
C     5.0   -0.1   -0.0
C     4.3    1.2   -0.1
O     2.9    1.2   -0.0
H     2.4   -1.9   -0.8
H     2.5   -1.8    0.9
H     4.9   -2.2    0.0
H     6.1   -0.0   -0.0
H     4.6    1.9    0.8
H     4.6    1.8   -0.9
