          18
 frame:         6692
O     4.0    1.3    2.4
C     3.4    2.6    1.9
C     3.1    2.5    0.4
C     4.3    2.2   -0.5
C     5.3    3.3   -0.5
C     6.1    3.6   -1.7
N     4.9    4.5   -1.3
H     4.1    1.4    3.3
H     4.1    3.4    2.1
H     2.5    2.8    2.5
H     2.6    3.4    0.1
H     2.3    1.7    0.3
H     3.9    2.0   -1.5
H     4.8    1.2   -0.1
H     5.8    3.5    0.4
H     5.9    3.0   -2.6
H     7.1    4.0   -1.6
H     5.3    5.3   -0.9
