          17
 frame:         5202
C     1.0   -0.1   -0.0
C     2.5    0.0   -0.2
C     3.0   -1.0   -1.2
N     3.0    1.4   -0.5
O     2.3    1.9   -1.6
C     3.0    2.3    0.6
N     2.7    3.6    0.6
H     0.6    0.6    0.8
H     0.7   -1.1    0.2
H     0.5    0.2   -0.9
H     3.0   -0.2    0.8
H     2.6   -0.8   -2.2
H     2.8   -2.0   -1.0
H     4.1   -0.9   -1.3
H     3.1    2.0   -2.3
H     3.3    1.8    1.5
H     2.4    3.8   -0.4
