          18
 frame:         5667
C     1.2    0.1    0.2
N     2.6   -0.0   -0.2
C     2.8   -0.7   -1.4
C     3.3    1.3   -0.2
C     3.8    1.9    1.1
C     4.7    1.4    0.1
O     5.6    2.2   -0.6
H     1.1    0.6    1.2
H     0.8   -0.9    0.3
H     0.6    0.7   -0.5
H     2.4   -1.7   -1.3
H     3.9   -0.8   -1.7
H     2.3   -0.2   -2.3
H     2.9    2.0   -1.0
H     3.6    1.3    2.0
H     3.7    3.0    1.2
H     5.2    0.4    0.3
H     5.3    3.1   -0.6
