          17
 frame:         3693
C     0.9    0.1   -0.1
C     2.4   -0.1   -0.0
C     3.1    1.3    0.0
C     4.6    1.1    0.0
C     5.4    1.1    1.1
C     5.3    0.9   -1.3
O     4.8    0.9   -2.4
H     0.4   -0.9   -0.1
H     0.6    0.7   -0.9
H     0.5    0.6    0.8
H     2.7   -0.6   -0.9
H     2.7   -0.7    0.8
H     2.8    1.8    0.9
H     2.8    1.9   -0.8
H     5.0    1.3    2.1
H     6.5    1.0    1.1
H     6.4    0.8   -1.2
