          13
 frame:         4232
C     1.0   -0.0    0.7
O     2.4    0.3    0.9
C     2.9    1.3   -0.0
C     2.4    2.7    0.4
O     1.6    3.4   -0.2
C     4.4    1.3   -0.0
C     5.6    1.4   -0.0
H     0.8   -0.8    1.5
H     0.9   -0.4   -0.3
H     0.4    0.9    0.8
H     2.5    1.1   -1.0
H     2.8    3.0    1.4
H     6.6    1.5   -0.0
