          15
 frame:         2566
C     0.9   -0.3   -0.6
C     2.1   -0.4    0.4
N     2.9    0.8    0.4
N     4.1    0.7    1.0
C     4.6    1.8    1.4
C     5.9    1.8    1.9
C     7.1    1.9    2.4
H     0.3   -1.2   -0.6
H     1.3   -0.1   -1.6
H     0.2    0.5   -0.3
H     2.8   -1.2    0.1
H     1.7   -0.7    1.4
H     2.3    1.7    0.6
H     4.1    2.8    1.3
H     8.0    2.0    2.8
