          18
 frame:         5388
C     0.1   -1.0    0.7
C     1.6   -1.1    0.1
N     1.8   -2.1   -0.9
C     2.1    0.2   -0.4
O     1.3    0.6   -1.5
C     1.6    1.8   -2.1
C     2.6    2.6   -1.8
H     0.1   -0.2    1.5
H    -0.2   -2.0    1.1
H    -0.6   -0.7   -0.1
H     2.2   -1.4    1.0
H     1.2   -1.9   -1.7
H     1.4   -3.0   -0.6
H     3.1    0.1   -0.8
H     2.1    1.0    0.4
H     0.9    2.0   -2.9
H     3.3    2.5   -1.0
H     2.7    3.5   -2.4
