          13
 frame:         7131
N     0.9   -0.1   -0.1
C     2.4    0.0   -0.0
C     3.1    1.2   -0.1
S     4.8    0.9    0.0
C     4.5   -0.8    0.1
C     3.2   -1.1    0.0
N     2.6   -2.4    0.1
H     0.5    0.8   -0.0
H     0.6   -0.8    0.6
H     2.7    2.2   -0.1
H     5.4   -1.5    0.1
H     1.9   -2.5   -0.6
H     3.3   -3.2    0.0
