          15
 frame:         2959
N     1.3   -0.3    0.6
C     2.4    0.0   -0.4
C     2.9    1.4   -0.2
C     3.2    2.5   -0.1
C     3.7    3.9    0.1
C     4.4    4.6   -1.0
N     3.0    5.0   -0.6
H     0.9   -1.2    0.4
H     0.5    0.4    0.5
H     2.0   -0.1   -1.4
H     3.2   -0.7   -0.2
H     4.1    4.1    1.1
H     4.5    4.2   -2.0
H     5.2    5.3   -0.7
H     3.0    5.8   -0.0
