          16
 frame:         6263
N     1.0   -0.1    0.0
C     2.4   -0.0   -0.0
C     3.0    1.4    0.0
C     3.4    2.5   -0.0
C     3.9    3.9    0.0
C     2.7    4.9   -0.0
O     3.2    6.2   -0.0
H     0.7   -1.0   -0.1
H     0.6    0.5   -0.8
H     2.9   -0.5   -0.9
H     2.8   -0.6    0.9
H     4.5    4.1   -0.9
H     4.5    4.0    0.9
H     2.0    4.7    0.8
H     2.1    4.7   -0.9
H     3.5    6.4    0.8
