          15
 frame:         3841
C     1.0    1.6    0.6
C     2.4    1.7    0.7
C     3.3    1.1   -0.3
O     2.9    0.3   -1.2
C     4.7    1.3   -0.1
C     5.7    0.2   -0.4
C     5.6    1.3   -1.3
H     0.3    2.1    1.2
H     0.6    0.9   -0.2
H     2.8    2.4    1.4
H     5.0    2.0    0.8
H     5.2   -0.8   -0.7
H     6.6    0.1    0.3
H     6.5    2.1   -1.3
H     5.1    1.2   -2.2
