          15
 frame:         3099
C     0.8   -1.1    0.6
C    -0.4   -1.5   -0.3
C    -1.5   -0.5   -0.2
C    -1.4    0.8    0.0
O    -0.2    1.6    0.2
C     0.9    1.0   -0.5
O     1.6    0.0    0.2
H     1.5   -2.0    0.6
H     0.4   -1.0    1.6
H    -0.8   -2.5    0.0
H    -0.0   -1.6   -1.3
H    -2.5   -0.9   -0.4
H    -2.3    1.5    0.2
H     1.6    1.9   -0.6
H     0.6    0.7   -1.5
