          15
 frame:         4822
C     1.1    0.1    0.2
C     2.6   -0.0   -0.0
N     3.3   -1.1    0.1
C     4.7   -0.8   -0.2
C     4.8    0.8   -0.1
N     3.4    1.1   -0.4
O     3.0    2.3    0.3
H     0.7   -0.8    0.4
H     0.7    0.6   -0.7
H     0.9    0.8    1.0
H     5.3   -1.3    0.4
H     4.9   -1.1   -1.3
H     5.5    1.2   -0.8
H     5.0    1.0    1.0
H     2.9    3.0   -0.4
