          17
 frame:         3351
C     0.8    0.1   -0.1
C     2.4    0.1    0.1
C     3.0    0.1   -1.3
O     2.8   -1.2    0.7
C     3.5   -0.9    2.0
C     3.5    0.6    2.0
C     2.9    1.1    1.0
H     0.4    0.1    0.9
H     0.5   -0.8   -0.6
H     0.5    1.0   -0.6
H     4.1    0.0   -1.2
H     2.8    1.0   -1.9
H     2.7   -0.8   -1.9
H     4.5   -1.4    1.9
H     2.9   -1.3    2.8
H     4.0    1.2    2.8
H     2.8    2.2    0.7
