          19
 frame:         1334
C     1.0    0.2   -1.0
C     2.5    0.2   -0.9
C     3.2    1.1   -0.2
C     4.7    1.1   -0.1
C     5.6    0.3   -0.9
C     5.5    1.9   -1.1
C     6.7    2.7   -0.7
H     0.7    0.3   -2.1
H     0.5    1.1   -0.5
H     0.5   -0.7   -0.6
H     3.0   -0.6   -1.3
H     2.6    1.9    0.3
H     5.0    1.3    1.0
H     5.2   -0.3   -1.7
H     6.5   -0.1   -0.5
H     5.0    2.2   -2.0
H     7.2    2.3    0.2
H     6.4    3.8   -0.4
H     7.5    2.8   -1.5
