          14
 frame:         5087
C     0.9    0.1    0.2
C     2.4   -0.1    0.1
C     3.0   -1.3   -0.1
C     3.2    1.1    0.0
O     2.9    2.0   -1.1
C     3.2    1.9    1.3
N     3.1    2.4    2.3
H     0.7    0.7    1.1
H     0.4   -0.9    0.3
H     0.5    0.6   -0.6
H     2.4   -2.2   -0.0
H     4.0   -1.4   -0.2
H     4.3    0.9   -0.2
H     2.0    2.5   -0.8
