          12
 frame:         4646
C     0.9    0.0   -0.0
C     2.4    0.1   -0.0
C     3.3    1.1    0.0
C     4.7    0.5    0.0
N     4.7   -0.8   -0.0
C     3.3   -1.2   -0.0
O     2.9   -2.3   -0.0
H     0.5    1.0    0.0
H     0.6   -0.6    0.9
H     0.6   -0.5   -0.9
H     3.1    2.2    0.0
H     5.6    1.1    0.0
