          15
 frame:         3113
C     1.0    0.0    0.0
C     0.8    0.7    1.4
C    -0.4    0.3    2.2
O     0.9   -0.2    2.5
C     2.5   -0.0   -0.3
C     3.3   -1.2   -0.0
O     2.9   -0.9   -1.4
H     0.6   -1.0   -0.0
H     0.5    0.6   -0.8
H     1.1    1.7    1.5
H    -1.1   -0.5    1.8
H    -0.8    1.0    2.9
H     3.0    0.9   -0.3
H     2.8   -2.1    0.4
H     4.4   -1.1    0.2
