          15
 frame:         2287
C     3.3   -0.7    0.1
C     2.5    0.3    0.4
C     2.7    1.7   -0.1
C     1.7    2.6    0.1
N     3.8    2.0   -0.9
C     4.0    3.0   -1.9
N     5.0    3.3   -2.5
H     3.1   -1.7    0.6
H     4.1   -0.7   -0.7
H     1.8    0.2    1.1
H     0.8    2.4    0.6
H     1.8    3.7   -0.2
H     4.7    1.4   -0.7
H     3.0    3.4   -2.2
H     5.8    2.9   -2.1
