          12
 frame:         6178
N     1.0   -0.0    0.1
C     2.1    0.0    0.0
C     3.6   -0.0   -0.0
C     4.2   -1.3   -0.7
C     4.7   -0.7   -2.0
C     4.6    0.7   -1.9
O     4.1    1.1   -0.8
H     4.0    0.1    1.0
H     3.4   -2.0   -0.8
H     5.0   -1.7   -0.1
H     5.1   -1.3   -2.8
H     4.9    1.4   -2.7
