          16
 frame:          700
C     1.0    0.1   -0.1
C     2.5    0.2   -0.1
O     3.3   -0.4   -1.1
C     3.4    1.0   -0.9
C     2.8    1.8   -2.1
C     4.7    1.5   -0.4
H     0.6    0.8    0.6
H     0.7   -1.0    0.1
H     0.7    0.3   -1.1
H     3.0   -0.0    0.9
H     1.9    1.4   -2.5
H     3.5    1.8   -2.9
H     2.6    2.8   -1.8
H     5.1    0.9    0.4
H     4.6    2.5   -0.1
H     5.5    1.5   -1.2
