          15
 frame:         1395
C     0.9   -0.0    0.0
C     2.4   -0.0    0.1
C     3.1    1.1   -0.1
C     4.5    1.1   -0.0
C     5.8    1.2    0.0
C     7.2    1.2    0.1
C     7.9    2.3   -0.1
H     0.5   -0.8   -0.7
H     0.5    0.9   -0.2
H     0.4   -0.3    1.0
H     2.9   -1.0    0.4
H     2.6    2.0   -0.3
H     7.7    0.3    0.4
H     7.5    3.3   -0.4
H     9.0    2.3   -0.0
