          16
 frame:         5930
C     1.9   -0.8    1.6
O     3.2   -0.1    1.3
C     3.0    1.1    0.6
C     2.4    2.2    1.5
C     4.4    1.4    0.1
C     4.4    2.6   -0.8
N     4.4    3.6   -1.4
H     2.2   -1.8    2.0
H     1.4   -1.0    0.6
H     1.3   -0.3    2.3
H     2.3    0.9   -0.3
H     3.0    2.4    2.4
H     1.4    1.9    1.8
H     2.4    3.1    0.9
H     4.8    0.6   -0.5
H     5.1    1.6    0.9
