          17
 frame:         4443
O     1.1    0.3    0.1
C     2.5    0.0   -0.1
C     2.6   -0.7   -1.4
C     3.1   -1.9   -1.6
C     3.4    1.3   -0.1
C     3.7    1.9    1.3
C     4.8    1.2    0.4
H     1.1    1.0    0.8
H     2.8   -0.7    0.7
H     2.2   -0.1   -2.3
H     3.5   -2.5   -0.7
H     3.2   -2.4   -2.5
H     3.1    2.0   -0.8
H     3.4    1.3    2.2
H     3.8    3.0    1.4
H     5.5    1.9   -0.1
H     5.2    0.2    0.7
