          19
 frame:         3542
C     1.1   -0.2   -0.1
C     2.6   -0.1   -0.1
C     3.1    1.3    0.2
C     4.7    1.4    0.1
C     5.3    1.4   -1.3
C     6.0    2.7   -0.8
O     5.2    2.7    0.4
H     0.7   -1.2   -0.3
H     0.6    0.5   -0.8
H     0.7    0.1    0.9
H     3.0   -0.4   -1.2
H     3.1   -0.8    0.5
H     2.8    1.6    1.2
H     2.7    2.0   -0.5
H     5.1    0.6    0.8
H     4.7    1.6   -2.1
H     6.0    0.6   -1.5
H     7.1    2.6   -0.5
H     5.9    3.6   -1.4
