          14
 frame:          810
C     1.0   -0.2   -0.0
C     2.5    0.1   -0.1
C     2.8    1.6   -0.1
O     1.9    2.5    0.0
C     4.2    2.0   -0.1
O     4.4    3.4   -0.1
H     0.8   -1.3   -0.0
H     0.4    0.2   -0.9
H     0.5    0.2    0.9
H     2.9   -0.3   -0.9
H     3.0   -0.3    0.8
H     4.7    1.6   -1.0
H     4.8    1.6    0.7
H     3.4    3.7   -0.0
