          15
 frame:         3907
C     1.3   -0.4   -0.8
C     2.3   -0.1   -0.0
C     3.0    1.2    0.0
O     4.5    0.9   -0.1
C     5.2    2.1    0.0
C     6.7    1.7   -0.1
O     7.6    2.6   -0.1
H     0.8   -1.3   -0.8
H     0.9    0.4   -1.5
H     2.6   -0.9    0.7
H     2.9    1.7    1.0
H     2.7    1.9   -0.8
H     5.1    2.6    1.0
H     5.0    2.9   -0.8
H     6.9    0.7   -0.3
