          19
 frame:         1383
C     0.7   -0.6   -0.0
C     2.1   -0.0   -0.1
C     2.5    1.3   -0.1
C     1.5    2.4   -0.1
C     3.9    1.7   -0.1
C     4.3    2.4   -1.4
C     4.8    3.6   -1.5
H     0.6   -1.3   -0.9
H    -0.1    0.1   -0.0
H     0.6   -1.2    0.9
H     2.9   -0.8   -0.1
H     0.4    2.1   -0.1
H     1.7    3.1   -1.0
H     1.6    3.1    0.8
H     4.5    0.8   -0.0
H     4.1    2.3    0.7
H     4.2    1.8   -2.3
H     5.0    4.2   -0.6
H     5.1    4.0   -2.5
