          14
 frame:         5298
C     0.8   -3.4   -1.5
C     0.4   -2.5   -0.5
C     0.8   -1.1   -0.5
O     1.5   -0.8    0.7
N     1.7    0.6    0.8
C     1.1    1.2    1.9
O     1.5    2.3    2.3
H     0.5   -4.4   -1.5
H     1.4   -3.0   -2.4
H    -0.2   -2.9    0.3
H    -0.2   -0.4   -0.5
H     1.4   -0.8   -1.4
H     2.6    0.9    0.6
H     0.3    0.6    2.4
