          17
 frame:         3040
N     1.4   -0.1    0.8
N     2.4   -0.0   -0.1
C     2.9    1.1   -0.3
C     2.5    2.5    0.3
C     3.4    3.5   -0.3
C     4.7    2.7   -0.6
C     4.2    1.4   -1.1
H     0.8   -1.0    0.6
H     0.7    0.7    0.8
H     2.5    2.5    1.4
H     1.4    2.7    0.1
H     3.0    3.9   -1.3
H     3.6    4.4    0.3
H     5.3    3.2   -1.4
H     5.3    2.6    0.3
H     3.9    1.4   -2.2
H     4.9    0.5   -1.0
