          19
 frame:         3677
C     2.2   -0.4    1.4
C     2.5    0.2   -0.0
C     2.9    1.7    0.0
C     1.8    2.6    0.3
C     4.2    2.0   -0.2
C     4.7    3.4   -0.3
O     5.8    3.6    0.7
H     2.0   -1.5    1.3
H     1.3    0.1    1.8
H     3.0   -0.3    2.1
H     1.7    0.0   -0.7
H     3.4   -0.4   -0.4
H     1.0    2.5   -0.5
H     2.1    3.6    0.4
H     1.3    2.3    1.3
H     4.9    1.3   -0.5
H     4.0    4.2   -0.1
H     5.2    3.6   -1.2
H     5.4    3.2    1.6
