          14
 frame:          885
O     1.1   -0.1    0.0
C     2.5   -0.1   -0.0
C     3.1   -0.8   -1.2
C     3.2    0.8   -1.1
C     4.4    1.5   -0.7
C     5.6    1.0   -0.4
H     0.7    0.6    0.5
H     3.0   -0.2    1.0
H     2.5   -1.1   -1.9
H     4.0   -1.3   -1.0
H     2.5    1.3   -1.7
H     4.3    2.6   -0.6
H     5.8   -0.1   -0.5
H     6.4    1.6   -0.1
