          15
 frame:         4076
C     1.1   -1.1    0.3
C     2.4   -0.3   -0.1
O     3.0   -1.0   -1.2
C     2.1    1.1   -0.4
O     2.4    1.5   -1.6
C     1.6    2.0    0.6
C     1.3    3.3    0.4
H     0.6   -0.7    1.2
H     1.3   -2.1    0.5
H     0.4   -1.0   -0.5
H     3.1   -0.3    0.8
H     3.1   -0.3   -1.9
H     1.4    1.6    1.6
H     1.5    3.7   -0.6
H     0.9    4.0    1.2
