          13
 frame:         1527
C    -1.4    0.6    0.1
C    -1.4   -0.8   -0.0
C    -0.3   -1.6    0.3
C     0.9   -1.1    0.6
C     1.4    0.2    0.2
N     0.8    1.0   -0.8
N    -0.5    1.1   -1.0
H    -2.3    1.1    0.0
H    -0.9    0.9    1.1
H    -2.4   -1.3   -0.4
H    -0.4   -2.7    0.2
H     1.7   -1.7    1.0
H     2.4    0.5    0.5
