          18
 frame:         5282
C     1.5    0.1    0.2
C     2.9   -0.1   -0.3
C     2.7   -0.9   -1.6
O     4.0   -1.3   -2.2
N     3.5    1.1   -0.7
C     4.1    1.9    0.5
C     5.0    1.2   -0.5
H     1.6    0.7    1.2
H     1.0   -0.8    0.5
H     0.9    0.7   -0.5
H     3.5   -0.7    0.4
H     2.1   -0.4   -2.3
H     2.3   -1.9   -1.4
H     4.4   -0.4   -2.5
H     4.0    1.4    1.5
H     4.0    3.0    0.5
H     5.5    1.8   -1.2
H     5.5    0.3   -0.1
