          15
 frame:         1571
C    -1.4    0.7    0.1
C    -1.5   -0.8   -0.2
C    -0.3   -1.6    0.2
C     1.0   -1.1    0.4
C     1.5    0.2    0.2
N     1.0    1.4   -0.2
N    -0.3    1.4   -0.6
H    -2.3    1.2   -0.1
H    -1.2    0.8    1.2
H    -1.7   -0.9   -1.2
H    -2.4   -1.2    0.4
H    -0.4   -2.7    0.3
H     1.7   -1.8    0.7
H     2.5    0.4    0.5
H    -0.6    2.4   -0.8
