          13
 frame:         5624
C     1.0    0.0   -0.0
N     2.4   -0.0    0.0
C     3.3    1.0    0.0
N     4.5    0.6    0.0
C     4.5   -0.7    0.0
O     5.7   -1.4    0.0
C     3.2   -1.2    0.0
H     0.7    1.1   -0.0
H     0.5   -0.5    0.9
H     0.6   -0.5   -0.9
H     2.9    2.1    0.0
H     5.5   -2.4    0.0
H     2.8   -2.2    0.0
