          14
 frame:          675
C     1.1   -0.1    0.1
C     2.4    0.0   -0.1
C     3.3    1.2   -0.0
C     4.5    0.9   -0.9
C     4.5   -0.7   -0.7
O     3.1   -1.1   -0.5
H     0.6   -1.0    0.0
H     0.5    0.8    0.4
H     3.6    1.4    1.0
H     2.8    2.2   -0.3
H     4.3    1.1   -1.9
H     5.4    1.4   -0.6
H     4.9   -1.2   -1.5
H     5.1   -0.9    0.3
