          14
 frame:         5953
C     3.7   -1.0    0.5
O     2.7   -0.0    0.5
C     3.1    1.2    0.2
C     4.4    1.7   -0.0
C     4.6    3.1   -0.2
N     5.8    3.5   -0.5
O     5.8    4.9   -0.7
H     3.2   -2.0    0.7
H     4.5   -0.8    1.2
H     4.2   -1.1   -0.5
H     2.3    1.9    0.2
H     5.2    1.0   -0.0
H     3.8    3.8   -0.2
H     6.8    5.1   -0.8
