          13
 frame:         3786
C     1.0    0.1   -0.1
C     2.3    0.1    0.0
C     3.2   -1.1   -0.0
C     3.8   -1.3   -1.4
O     3.7   -2.3   -2.1
C     2.9    1.4    0.2
O     4.1    1.6    0.4
H     0.4    1.0   -0.1
H     0.4   -0.9   -0.3
H     2.7   -2.0    0.2
H     4.1   -0.9    0.7
H     4.3   -0.4   -1.8
H     2.2    2.3    0.3
