          18
 frame:         2980
N     0.9   -0.0    0.1
C     2.4   -0.1    0.0
C     3.0    1.3   -0.1
C     4.5    1.3   -0.0
C     5.1    2.7   -0.1
C     6.5    2.7   -0.1
C     7.8    2.7   -0.1
H     0.5   -1.0    0.2
H     0.6    0.3   -0.9
H     2.8   -0.7   -0.8
H     2.7   -0.6    1.0
H     2.6    1.9    0.8
H     2.6    1.8   -1.0
H     4.9    0.7   -0.8
H     4.8    0.8    0.9
H     4.7    3.3    0.7
H     4.8    3.2   -1.1
H     8.8    2.7   -0.0
