          15
 frame:         3343
C     0.9   -0.1   -0.0
C     2.4    0.1    0.0
C     3.3    1.2    0.0
C     4.6    0.7    0.0
C     5.9    1.5    0.0
C     4.5   -0.7    0.0
O     3.2   -1.1    0.0
H     0.5    0.9   -0.0
H     0.6   -0.6    0.9
H     0.6   -0.6   -0.9
H     3.0    2.2    0.0
H     5.7    2.5    0.0
H     6.5    1.2   -0.8
H     6.5    1.3    0.9
H     5.2   -1.5    0.0
