          17
 frame:         3687
C     1.0   -0.1    0.0
C     2.5   -0.0    0.0
C     3.0    1.4   -0.0
C     3.4    2.5   -0.0
C     3.9    3.9   -0.0
C     5.0    4.0   -1.0
O     2.8    4.8   -0.4
H     0.6   -1.1    0.0
H     0.6    0.4   -0.9
H     0.6    0.4    0.9
H     2.9   -0.6   -0.9
H     2.9   -0.5    0.9
H     4.3    4.1    1.0
H     4.7    3.8   -2.0
H     5.9    3.4   -0.8
H     5.4    5.1   -1.0
H     3.1    5.7   -0.3
