          13
 frame:         6684
O     2.6   -0.8   -1.0
C     2.3   -0.1    0.2
C     2.9    1.3    0.1
N     2.1    2.4    0.1
N     3.0    3.5   -0.0
C     4.2    3.1   -0.1
C     4.3    1.7   -0.0
H     2.1   -0.4   -1.8
H     2.8   -0.7    1.0
H     1.3   -0.0    0.4
H     5.0    3.9   -0.2
H     4.8    1.2   -0.9
H     5.0    1.3    0.8
