          12
 frame:          717
C     1.0   -0.1    0.2
C     2.2   -0.0    0.1
C     3.6    0.1   -0.1
C     4.3    1.2    0.8
C     5.2   -0.0    1.3
O     4.4   -1.0    0.6
H    -0.1   -0.2    0.2
H     3.9    0.2   -1.1
H     3.7    1.6    1.6
H     4.8    2.0    0.3
H     6.3   -0.0    0.9
H     5.3   -0.3    2.4
