          19
 frame:         2672
C     1.5   -0.1    0.5
N     2.9    0.2    0.8
C     3.2    1.6    0.7
C     2.5    2.4    1.9
C     4.7    1.8    0.8
C     5.5    1.8   -0.5
N     5.2    3.1    0.2
H     1.4   -1.2    0.3
H     1.1    0.4   -0.5
H     0.8    0.2    1.3
H     3.5   -0.2    0.1
H     2.8    2.1   -0.2
H     2.9    1.9    2.8
H     1.4    2.4    1.8
H     2.9    3.4    1.9
H     5.2    1.4    1.7
H     5.0    1.7   -1.5
H     6.5    1.4   -0.4
H     6.0    3.4    0.8
