          15
 frame:         4777
C     1.0   -0.0    0.4
C     2.4   -0.1   -0.1
C     2.8    1.2   -0.8
O     4.1    1.1   -1.4
C     4.5   -0.1   -1.8
N     3.9   -1.2   -1.6
N     2.6   -1.1   -1.1
H     0.8    0.8    1.1
H     0.7   -0.9    0.9
H     0.3    0.1   -0.5
H     3.1   -0.2    0.7
H     2.8    2.1   -0.2
H     2.1    1.4   -1.7
H     5.5   -0.1   -2.2
H     2.4   -2.0   -0.7
