          14
 frame:         6613
O     2.9   -1.0   -0.7
C     2.4    0.1    0.1
C     3.3    1.2    0.1
C     3.3    2.2   -1.1
C     2.8    2.6    0.3
C     3.5    3.6    1.1
N     4.1    4.3    1.7
H     2.4   -1.8   -0.6
H     2.2   -0.2    1.1
H     1.4    0.4   -0.3
H     4.3    1.0    0.5
H     2.6    2.1   -1.9
H     4.3    2.6   -1.4
H     1.7    2.7    0.3
