          20
 frame:         1704
C     1.1   -0.1   -0.1
C     2.6    0.0    0.0
C     3.1    1.2    0.9
C     4.4    0.7    1.5
C     4.6   -0.7    1.0
N     3.2   -1.1    0.7
C     3.1   -2.4   -0.1
H     0.8   -0.9   -0.8
H     0.7    0.9   -0.6
H     0.6   -0.2    0.8
H     3.1    0.1   -1.0
H     2.4    1.4    1.6
H     3.2    2.1    0.2
H     5.3    1.3    1.2
H     4.3    0.7    2.6
H     5.2   -0.8    0.1
H     5.0   -1.4    1.8
H     2.1   -2.7   -0.2
H     3.6   -3.2    0.5
H     3.7   -2.3   -1.0
