          15
 frame:         3746
C     1.0   -0.0    0.3
C     2.4   -0.2    0.1
C     3.0   -1.4   -0.1
C     3.3    1.1    0.0
O     2.9    2.0   -1.0
C     3.3    1.8    1.3
C     3.3    2.3    2.4
H     0.8    0.5    1.2
H     0.5   -1.0    0.3
H     0.5    0.6   -0.5
H     2.4   -2.3   -0.1
H     4.1   -1.5   -0.3
H     4.3    0.8   -0.3
H     2.2    2.6   -0.6
H     3.3    2.8    3.3
