          18
 frame:         1692
C     0.9   -0.0    0.1
C     2.5   -0.0   -0.1
C     3.0   -1.2   -0.8
C     4.1   -0.9   -1.5
C     4.4    0.6   -1.4
C     3.1    1.2   -0.9
N     2.1    1.6   -1.9
H     0.6    0.9    0.6
H     0.6   -0.8    0.7
H     0.4   -0.1   -0.9
H     2.9    0.0    0.9
H     2.6   -2.2   -0.6
H     4.7   -1.6   -2.1
H     5.2    0.8   -0.8
H     4.7    1.0   -2.4
H     3.2    2.0   -0.2
H     2.0    0.9   -2.6
H     2.5    2.4   -2.5
