          15
 frame:         5787
C     0.9   -0.5    0.6
N     1.6   -1.4   -0.4
C     2.6   -2.3    0.1
N     1.2   -1.4   -1.6
C     1.7   -2.3   -2.5
C     1.1   -2.2   -3.8
O     1.5   -3.0   -4.7
H     0.2    0.1   -0.0
H     1.6    0.1    1.1
H     0.3   -1.1    1.3
H     2.9   -2.0    1.2
H     3.6   -2.2   -0.4
H     2.3   -3.3    0.1
H     2.5   -3.0   -2.3
H     0.3   -1.5   -4.0
