          17
 frame:         3045
N     0.7    1.1   -0.1
N     2.0    1.1   -0.6
C     3.0    1.3    0.1
C     4.4    1.2   -0.5
C     5.2    2.6   -0.3
C     5.9    2.9    0.9
C     6.7    2.6   -0.3
H     0.0    1.3   -0.7
H     0.7    1.7    0.8
H     2.9    1.6    1.1
H     4.3    0.9   -1.5
H     5.0    0.5    0.1
H     4.7    3.4   -0.9
H     5.8    2.2    1.8
H     5.8    3.9    1.3
H     7.2    3.4   -0.8
H     7.2    1.6   -0.3
