          12
 frame:         6784
O     1.2    0.0    0.7
C     2.4    0.1    0.2
N     3.1    1.2    0.2
C     2.7    2.6    0.5
C     3.9    3.0   -0.4
O     4.3    4.1   -0.8
C     4.3    1.6   -0.7
H     2.9   -0.8   -0.3
H     2.8    2.9    1.5
H     1.7    2.8    0.1
H     4.2    1.2   -1.8
H     5.3    1.3   -0.3
