          17
 frame:         2203
C     0.9   -0.1   -0.3
C     2.4    0.1   -0.3
C     3.1    1.1    0.0
C     2.6    2.4    0.6
C     4.6    1.1   -0.2
N     5.2   -0.2   -0.2
N     5.4    2.1   -0.3
H     0.6   -1.0    0.3
H     0.5   -0.2   -1.3
H     0.4    0.8    0.2
H     2.9   -0.8   -0.8
H     1.5    2.3    0.8
H     2.6    3.2   -0.2
H     3.1    2.8    1.4
H     4.8   -0.9    0.4
H     6.2   -0.1   -0.2
H     4.8    3.0   -0.4
