          17
 frame:         4385
O     2.2   -0.4   -1.4
C     2.4    0.0   -0.1
C     3.1    1.3   -0.0
C     2.4    2.6   -0.5
C     3.1    3.4    0.6
C     3.3    2.0    1.3
O     4.5    1.8    2.1
H     1.7   -1.2   -1.4
H     2.9   -0.7    0.6
H     1.4    0.1    0.4
H     4.1    1.2   -0.5
H     1.3    2.6   -0.4
H     2.6    3.0   -1.6
H     4.1    3.8    0.3
H     2.6    4.2    1.2
H     2.5    1.8    2.0
H     5.2    2.0    1.6
