          20
 frame:         5692
C     1.2   -0.3    0.1
N     2.6   -0.1    0.3
C     3.0    1.3    0.2
C     2.6    2.1    1.4
C     4.6    1.4    0.0
C     5.4    0.8    1.2
O     4.8    0.7   -1.2
H     1.0   -1.4    0.0
H     0.8    0.2   -0.8
H     0.6    0.1    1.0
H     3.1   -0.6   -0.5
H     2.6    1.8   -0.7
H     2.9    1.7    2.3
H     1.5    2.2    1.4
H     3.0    3.2    1.4
H     4.8    2.5   -0.1
H     5.1   -0.2    1.3
H     5.2    1.4    2.1
H     6.4    0.8    0.9
H     5.8    0.6   -1.3
