          16
 frame:         2121
C     0.7   -0.1   -0.1
C     2.1   -0.5    0.1
C     2.5   -1.8    0.2
C     3.1    0.6    0.0
C     3.1    1.6    1.2
C     4.1    2.6    1.1
N     4.9    3.4    1.1
H     0.4    0.6    0.8
H     0.0   -1.0   -0.1
H     0.5    0.5   -1.0
H     1.8   -2.6    0.3
H     3.5   -2.1    0.3
H     3.0    1.2   -0.9
H     4.2    0.2   -0.1
H     3.2    1.0    2.2
H     2.1    2.0    1.3
