          19
 frame:         2887
N     1.4   -0.1    1.1
C     1.9    0.5   -0.2
C     3.1    1.4    0.0
C     3.4    2.5   -1.0
C     2.9    2.9    0.4
C     3.8    3.5    1.4
N     3.8    5.0    1.2
H     0.6   -0.7    0.9
H     1.1    0.7    1.7
H     1.1    1.1   -0.7
H     2.2   -0.3   -0.9
H     3.9    0.9    0.5
H     2.8    2.6   -1.8
H     4.5    2.7   -1.2
H     1.9    3.2    0.4
H     4.8    3.0    1.3
H     3.4    3.3    2.4
H     4.2    5.2    0.3
H     4.4    5.4    1.9
