          15
 frame:         1848
C     1.0    0.0    0.1
C     2.5    0.0   -0.0
C     3.3   -1.1   -0.1
N     4.6   -0.7   -0.2
C     4.7    0.7   -0.3
N     5.8    1.5   -0.5
C     3.3    1.2   -0.1
H     0.6   -1.0    0.1
H     0.5    0.6   -0.7
H     0.7    0.5    1.1
H     3.0   -2.1   -0.1
H     5.4   -1.3   -0.5
H     6.6    0.9   -0.6
H     3.0    1.9   -0.9
H     3.2    1.8    0.8
