          20
 frame:         1673
C     0.9    0.1   -0.3
C     2.4    0.1    0.0
C     2.7    0.0    1.5
C     3.3   -0.6   -1.0
C     3.4    0.9   -0.9
C     2.9    1.7   -2.1
N     4.6    1.5   -0.4
H     0.7    0.1   -1.4
H     0.4    1.0    0.2
H     0.4   -0.8    0.2
H     3.8   -0.0    1.7
H     2.2   -0.9    1.9
H     2.3    0.9    2.0
H     2.9   -1.1   -1.8
H     4.2   -1.2   -0.5
H     2.0    1.2   -2.5
H     3.6    1.8   -2.8
H     2.6    2.7   -1.8
H     5.1    0.8    0.3
H     4.4    2.3    0.1
