          16
 frame:         4640
C     0.9    0.1    0.1
C     2.5    0.0    0.0
C     3.3    1.1    0.8
C     4.2   -0.1    1.3
N     3.1   -1.1    0.8
C     2.9    0.1   -1.4
O     3.6   -0.7   -2.0
H     0.7    0.1    1.2
H     0.5   -0.8   -0.3
H     0.5    0.9   -0.4
H     2.7    1.5    1.6
H     3.8    1.9    0.3
H     5.1   -0.2    0.7
H     4.4   -0.2    2.3
H     3.5   -1.8    0.1
H     2.4    1.0   -2.0
