          15
 frame:         2557
C     1.7    0.6   -2.1
C     2.8    0.7   -1.0
N     3.6    1.6   -1.0
N     4.5    1.7   -0.0
C     5.8    2.4   -0.4
C     6.7    2.5    0.7
C     7.5    2.6    1.7
H     1.7   -0.4   -2.6
H     1.8    1.4   -2.8
H     0.7    0.6   -1.6
H     2.8   -0.1   -0.3
H     4.7    0.8    0.5
H     5.5    3.4   -0.7
H     6.3    1.9   -1.2
H     8.1    2.6    2.5
