          17
 frame:         3161
C     1.1   -0.6    0.0
C     2.5   -0.6   -0.3
C     3.0   -0.2   -1.7
C     3.3    0.7   -0.5
C     4.7    0.7    0.0
C     5.2    2.0    0.7
O     5.5   -0.3   -0.1
H     0.9   -0.5    1.1
H     0.6   -1.5   -0.3
H     0.6    0.3   -0.5
H     3.1   -1.4    0.1
H     2.3    0.2   -2.4
H     3.9   -0.7   -2.1
H     2.8    1.6   -0.4
H     5.1    2.8   -0.0
H     6.2    1.9    1.1
H     4.5    2.2    1.5
