          17
 frame:         4178
C     2.7   -0.9    0.2
O     4.0   -0.4    0.1
C     4.1    1.0    0.1
C     5.5    1.5   -0.0
C     6.5    0.7   -0.1
C     5.7    3.0   -0.1
C     4.8    3.9   -0.0
H     2.7   -1.9    0.2
H     2.1   -0.5   -0.7
H     2.2   -0.5    1.1
H     3.6    1.4    1.0
H     3.5    1.4   -0.8
H     6.4   -0.4   -0.1
H     7.5    1.0   -0.2
H     6.8    3.3   -0.1
H     3.7    3.7    0.1
H     5.0    5.0   -0.1
