          15
 frame:         4394
O     1.4   -0.2   -0.9
C     2.0    0.4    0.1
C     3.2    1.2   -0.0
C     3.7    1.5   -1.5
C     3.4    2.9   -1.7
C     3.0    3.5   -0.5
C     3.0    2.6    0.7
H     1.5    0.3    1.1
H     4.0    0.6    0.5
H     3.1    0.8   -2.2
H     4.8    1.3   -1.6
H     3.4    3.4   -2.6
H     2.7    4.6   -0.4
H     3.9    2.8    1.3
H     2.1    2.6    1.3
