          13
 frame:         4742
C     1.0   -0.0    0.1
C     2.3    0.0   -0.1
C     3.3    1.2   -0.0
N     4.5    0.8   -0.7
N     4.4   -0.7   -0.7
C     3.2   -1.2   -0.3
O     2.9   -2.4   -0.2
H     0.5   -1.0    0.1
H     0.4    0.8    0.3
H     3.5    1.5    1.0
H     2.9    2.1   -0.5
H     4.5    1.1   -1.7
H     5.3   -1.2   -0.6
