          15
 frame:         4499
O     2.6   -1.2    0.9
C     2.3   -0.2   -0.1
C     3.4    0.9    0.1
C     4.8    0.5   -0.2
C     5.7    0.1    0.7
C     5.2    0.4   -1.7
O     4.4    0.7   -2.6
H     2.0   -2.0    0.7
H     1.3    0.2    0.0
H     2.4   -0.7   -1.1
H     3.3    1.2    1.1
H     3.1    1.7   -0.6
H     5.5    0.1    1.7
H     6.7   -0.2    0.4
H     6.2    0.0   -1.8
