          15
 frame:         4108
C     1.0    0.2   -0.5
O     2.4    0.1   -0.3
C     3.1    1.2   -0.2
C     4.5    1.3    0.0
C     4.8    2.7    0.1
C     3.5    3.5   -0.1
C     2.5    2.6   -0.2
H     0.6   -0.9   -0.6
H     0.8    0.7   -1.5
H     0.5    0.7    0.3
H     5.1    0.5    0.1
H     5.6    3.0   -0.7
H     5.3    3.0    1.1
H     3.5    4.6   -0.1
H     1.5    2.8   -0.4
