          16
 frame:         2857
N     1.1    0.1   -0.5
C     2.4   -0.0    0.0
C     2.6   -1.3    0.8
C     3.3   -0.9    2.1
C     3.9   -1.7    3.1
C     3.2    0.6    2.2
C     2.8    1.1    1.0
H     0.9   -0.6   -1.2
H     1.0    1.0   -1.0
H     3.2    0.0   -0.8
H     3.2   -2.1    0.3
H     1.6   -1.7    1.1
H     3.9   -2.8    3.0
H     4.3   -1.3    4.0
H     3.6    1.2    3.0
H     2.6    2.1    0.8
