          12
 frame:         4552
C     2.1   -0.2   -0.1
C     0.7   -0.8    0.2
O    -0.4   -1.4   -0.5
C    -1.4   -0.5   -0.2
N    -1.4    0.7    0.4
O    -0.1    1.4    0.6
C     0.8    0.6   -0.2
H     2.6   -0.2   -1.1
H     2.7   -0.2    0.7
H     0.6   -0.9    1.2
H    -2.4   -0.8   -0.4
H     0.5    0.8   -1.2
