          19
 frame:         2739
C     1.1   -0.1   -0.1
N     2.5    0.1   -0.1
C     3.0    1.3   -0.1
C     2.2    2.5   -0.0
N     4.4    1.4   -0.3
C     5.2    0.2   -0.4
C     5.1    2.5    0.3
H     0.9   -1.2   -0.1
H     0.6    0.4   -0.9
H     0.7    0.2    0.9
H     1.2    2.4   -0.3
H     2.6    3.3   -0.7
H     2.3    2.9    1.0
H     4.7   -0.5   -1.0
H     5.3   -0.3    0.6
H     6.2    0.4   -0.8
H     5.3    2.4    1.4
H     4.5    3.5    0.2
H     6.1    2.7   -0.2
