          15
 frame:         5200
C     0.9   -0.4    0.3
C     2.3   -0.2   -0.1
C     3.2   -1.2   -0.2
N     2.7    1.2   -0.3
O     4.0    1.4   -0.7
C     1.9    2.3   -0.0
N     2.3    3.5   -0.1
H     0.7    0.1    1.3
H     0.7   -1.5    0.4
H     0.2    0.0   -0.4
H     2.9   -2.2   -0.0
H     4.2   -1.0   -0.5
H     4.0    1.2   -1.7
H     0.9    2.1    0.3
H     3.3    3.6   -0.5
