          17
 frame:         3394
C     1.0    0.1    0.0
C     2.5   -0.1    0.0
O     3.2    0.9    0.8
C     4.1   -0.0    1.3
C     3.2   -1.2    0.8
C     2.4   -1.8    2.0
O     3.8   -2.3    0.1
H     0.5   -0.8   -0.5
H     0.7    1.0   -0.5
H     0.6    0.1    1.1
H     2.8   -0.1   -1.0
H     5.1    0.0    0.7
H     4.3    0.1    2.4
H     2.0   -1.1    2.6
H     3.1   -2.4    2.6
H     1.6   -2.5    1.6
H     4.3   -1.9   -0.7
