          15
 frame:         1306
C     1.6   -0.3   -1.2
C     2.2    0.1   -0.1
C     3.4    1.1   -0.1
C     3.7    2.0   -1.2
C     3.0    2.6   -0.0
C     3.8    3.5    0.8
C     4.4    4.2    1.6
H     0.8   -1.0   -1.1
H     1.9    0.0   -2.2
H     1.9   -0.2    0.9
H     4.2    0.8    0.6
H     3.1    1.9   -2.1
H     4.8    2.2   -1.4
H     2.0    2.9   -0.2
H     5.0    4.9    2.2
