          15
 frame:          161
C     0.9   -0.1    0.0
C     2.5   -0.0    0.0
C     3.0    1.4    0.0
O     4.4    1.3   -0.0
C     5.0    2.6   -0.0
H     0.5   -1.1    0.0
H     0.5    0.5   -0.9
H     0.5    0.5    0.9
H     2.8   -0.6   -0.9
H     2.9   -0.6    0.9
H     2.6    1.9    0.9
H     2.6    1.9   -0.9
H     6.1    2.5   -0.0
H     4.7    3.2    0.9
H     4.7    3.2   -0.9
