          15
 frame:         6272
N     1.1   -0.1   -0.2
C     2.6    0.2   -0.1
C     2.9    1.7    0.1
C     2.0    2.6    0.2
C     4.3    2.0    0.1
N     5.2    1.1   -0.0
O     6.5    1.7    0.0
H     0.9   -1.1   -0.1
H     0.8    0.2   -1.1
H     3.2   -0.2   -0.9
H     2.9   -0.3    0.8
H     0.9    2.4    0.2
H     2.2    3.7    0.3
H     4.6    3.1    0.1
H     7.1    1.0   -0.1
