          17
 frame:         5503
C     1.9   -0.4    1.3
C     2.4    0.1   -0.0
O     1.4    0.0   -1.1
C     3.0    1.5    0.0
C     2.1    2.7    0.3
N     4.3    1.6   -0.1
N     4.9    2.8    0.0
H     2.7   -0.4    2.1
H     1.5   -1.4    1.2
H     1.1    0.3    1.7
H     3.2   -0.6   -0.3
H     0.6    0.3   -0.7
H     1.1    2.4    0.4
H     2.1    3.4   -0.6
H     2.5    3.3    1.2
H     5.8    2.8   -0.5
H     4.3    3.6   -0.3
