          17
 frame:         5566
C     4.9    1.7   -1.9
C     4.7    1.6   -0.4
O     5.8    2.4    0.2
N     5.7    2.3    1.6
C     6.8    1.5    2.2
C     5.4    3.5    2.2
N     5.0    4.6    1.6
H     4.1    1.1   -2.3
H     5.8    1.3   -2.2
H     4.8    2.7   -2.2
H     4.8    0.5   -0.0
H     3.8    1.9   -0.0
H     6.8    0.5    1.9
H     6.8    1.5    3.3
H     7.8    1.9    1.9
H     5.6    3.5    3.3
H     5.0    4.5    0.6
