          14
 frame:         5991
C     3.1   -0.7   -0.3
O     2.4    0.6   -0.3
C     3.1    1.7   -0.1
N     2.3    2.8    0.0
C     4.5    1.7    0.2
C     5.3    2.9    0.3
O     6.5    3.0    0.5
H     2.3   -1.4   -0.6
H     3.6   -0.9    0.6
H     3.9   -0.7   -1.1
H     1.4    2.7   -0.5
H     2.8    3.7   -0.0
H     5.1    0.8    0.2
H     4.7    3.9    0.3
