          17
 frame:         3071
C    -0.4    0.1   -0.4
C     0.6    0.7   -1.4
C     1.1    0.3   -0.0
O     1.8   -0.9    0.1
C     3.2   -0.7    0.0
C     4.1   -1.9   -0.3
C     3.9   -0.8   -1.3
H    -1.1    0.7    0.1
H    -0.7   -0.9   -0.6
H     0.6    1.8   -1.6
H     0.9    0.1   -2.2
H     1.3    1.0    0.7
H     3.6    0.0    0.8
H     3.5   -2.8   -0.5
H     5.0   -2.0    0.2
H     4.8   -0.1   -1.5
H     3.3   -1.0   -2.2
