          15
 frame:         3510
C     1.0    0.0    0.6
C     1.6    1.0   -0.1
C     2.9    1.5    0.3
O     3.8    1.9   -0.8
C     3.3    3.0    0.1
C     4.2    3.7    0.9
C     5.5    3.5    1.0
H    -0.0   -0.4    0.3
H     1.4   -0.5    1.5
H     1.1    1.4   -1.0
H     3.4    1.1    1.2
H     2.5    3.6   -0.4
H     3.7    4.5    1.5
H     6.0    2.7    0.4
H     6.2    4.0    1.7
