          13
 frame:         4775
C     1.0   -0.0    0.0
C     2.5    0.0   -0.0
C     3.3    1.1   -0.0
O     4.6    0.6   -0.1
C     4.5   -0.8   -0.1
N     5.6   -1.5   -0.2
N     3.2   -1.2   -0.0
H     0.6    1.0    0.0
H     0.6   -0.6    0.9
H     0.6   -0.5   -0.9
H     3.2    2.2    0.0
H     5.5   -2.5    0.1
H     6.4   -1.1    0.3
