          15
 frame:         7052
C     1.2   -0.4   -0.4
C     2.7   -0.4   -0.2
O     3.1    1.0   -0.3
S     4.7    1.3   -0.1
C     4.6    3.1   -0.4
O     5.0    1.0    1.3
O     5.5    0.7   -1.2
H     0.9   -1.5   -0.3
H     1.0   -0.1   -1.5
H     0.7    0.2    0.3
H     3.3   -1.0   -0.9
H     3.0   -0.7    0.8
H     4.3    3.3   -1.4
H     5.7    3.5   -0.2
H     4.0    3.5    0.4
