          19
 frame:         1372
C     1.5   -0.7   -0.6
C     2.4    0.1   -1.1
C     3.0    1.3   -0.4
C     4.5    1.2   -0.3
C     5.1    2.4    0.4
C     6.6    2.4    0.6
C     7.5    3.2    0.1
H     1.1   -1.6   -1.2
H     1.1   -0.6    0.4
H     2.8   -0.1   -2.2
H     2.5    1.4    0.6
H     2.7    2.2   -1.0
H     5.0    1.1   -1.3
H     4.8    0.3    0.2
H     4.7    2.5    1.4
H     4.8    3.4   -0.1
H     7.0    1.5    1.1
H     7.1    4.1   -0.5
H     8.6    3.1    0.2
