          16
 frame:         1521
C     1.7    0.1   -0.5
C     0.8    0.9    0.4
C    -0.7    1.1   -0.1
C    -1.3    0.1    0.9
C    -0.5   -0.9    0.0
C    -0.8   -0.0   -1.2
N     0.9   -0.6    0.5
H     1.6   -0.1   -1.5
H     2.8    0.1   -0.2
H     1.2    1.5    1.2
H    -1.0    2.1   -0.2
H    -1.1    0.1    2.0
H    -2.4    0.0    0.8
H    -0.7   -2.0    0.1
H    -1.9   -0.1   -1.4
H    -0.2   -0.0   -2.1
