          19
 frame:         3944
C     2.2    4.5   -0.8
C     3.3    3.9   -0.1
O     3.9    2.8   -0.9
C     4.9    2.2   -0.2
C     5.9    1.5   -1.2
C     6.3    2.8   -0.4
C     7.3    2.7    0.8
H     1.7    5.3   -0.2
H     1.4    3.8   -1.0
H     2.5    4.9   -1.8
H     3.0    3.5    0.9
H     4.1    4.6    0.1
H     4.7    1.7    0.7
H     5.8    1.6   -2.2
H     6.3    0.6   -0.8
H     6.4    3.7   -1.0
H     7.2    1.8    1.4
H     7.2    3.5    1.4
H     8.4    2.6    0.4
