          16
 frame:         5209
C     1.0   -0.5    0.2
C     2.5   -0.1   -0.1
C     2.9   -0.7   -1.4
N     2.7    1.3    0.0
O     2.0    2.1   -0.9
C     3.5    2.0    0.8
O     3.6    3.3    0.7
H     0.7   -0.1    1.2
H     0.9   -1.6    0.2
H     0.3   -0.1   -0.6
H     3.1   -0.5    0.7
H     2.4   -0.3   -2.2
H     2.8   -1.8   -1.4
H     4.0   -0.4   -1.6
H     2.3    3.0   -0.7
H     4.0    1.4    1.5
