          15
 frame:         5579
C     3.2   -1.2    0.7
C     2.6    0.1    0.2
O     1.4    0.2    0.0
N     3.4    1.2    0.0
N     2.8    2.4   -0.5
C     4.8    1.2    0.2
C     5.6    2.3   -0.1
H     3.7   -1.1    1.7
H     4.0   -1.5   -0.0
H     2.4   -1.9    0.8
H     2.8    3.1    0.2
H     1.9    2.1   -0.7
H     5.2    0.3    0.6
H     5.2    3.2   -0.6
H     6.7    2.2    0.1
