          13
 frame:         6946
C     1.0   -0.1    0.0
C     2.5    0.1   -0.0
C     3.2    1.3   -0.0
S     4.9    1.0   -0.1
C     4.6   -0.7   -0.1
N     5.6   -1.7   -0.2
N     3.3   -1.0   -0.0
H     0.5    0.9    0.0
H     0.7   -0.6    0.9
H     0.7   -0.6   -0.9
H     2.8    2.3    0.0
H     5.3   -2.6    0.1
H     6.5   -1.4    0.3
