          18
 frame:         2885
N     0.7    0.9    0.6
C     1.7    0.8   -0.5
C     3.1    1.4   -0.1
C     4.1    1.9   -1.1
C     3.3    2.9   -0.3
C     4.0    3.7    0.8
C     5.3    3.9    1.0
H    -0.1    0.5    0.3
H     0.5    1.9    0.7
H     1.4    1.3   -1.5
H     1.9   -0.3   -0.7
H     3.5    1.0    0.8
H     3.8    1.8   -2.2
H     5.1    1.7   -0.9
H     2.5    3.4   -0.8
H     3.3    4.3    1.4
H     6.0    3.4    0.3
H     5.7    4.5    1.8
