          13
 frame:         4406
O     0.9    0.1    0.2
C     2.1    0.1    0.0
C     3.0    1.3   -0.1
C     4.3    1.4   -0.2
C     4.7    2.8   -0.2
C     3.4    3.5   -0.2
O     2.3    2.5    0.1
H     2.8   -0.8   -0.1
H     4.9    0.5   -0.3
H     5.3    3.0    0.7
H     5.4    3.1   -1.0
H     3.1    3.9   -1.2
H     3.3    4.3    0.5
