          13
 frame:         3029
N     1.0   -0.0    0.4
C     2.4   -0.1   -0.0
N     3.0   -1.1   -0.5
C     3.1    1.2   -0.0
C     2.4    2.4   -0.1
C     4.5    1.2    0.0
C     5.7    1.2    0.1
H     0.8    0.7    1.1
H     0.6   -0.9    0.6
H     2.4   -2.0   -0.4
H     1.3    2.4   -0.2
H     2.9    3.4   -0.1
H     6.8    1.2    0.1
