          12
 frame:         6610
O     1.5    0.3    0.6
C     2.5    0.0   -0.0
O     2.6   -1.1   -0.8
C     3.9   -1.3   -1.3
C     4.6   -0.0   -0.9
C     4.0    1.3   -1.4
N     3.7    0.7   -0.0
H     4.4   -2.2   -0.8
H     3.8   -1.5   -2.4
H     5.7   -0.0   -0.7
H     4.6    2.2   -1.4
H     3.2    1.2   -2.1
