          16
 frame:         5278
C     0.0    1.7    1.1
C     0.8    0.4    0.7
C     2.2    0.8    0.1
O     2.9   -0.5   -0.2
C     4.1   -0.3   -0.8
N     4.6    0.8   -1.1
O     5.9    0.7   -1.7
H    -0.9    1.4    1.5
H    -0.2    2.3    0.2
H     0.6    2.3    1.8
H     0.3   -0.2    0.0
H     1.0   -0.2    1.6
H     2.8    1.4    0.8
H     2.0    1.4   -0.8
H     4.5   -1.3   -1.0
H     6.1    1.6   -1.8
