          13
 frame:         3409
C     1.1    0.0    0.2
C     2.4    0.0   -0.1
O     3.1    1.2   -0.4
C     4.4    0.8   -0.9
C     4.6   -0.7   -0.6
C     3.2   -1.2   -0.3
O     2.9   -2.4   -0.2
H     0.6   -0.9    0.4
H     0.5    0.9    0.3
H     4.4    1.0   -2.0
H     5.2    1.5   -0.5
H     5.1   -1.3   -1.4
H     5.2   -0.8    0.3
