          12
 frame:          266
C     2.8   -1.1    0.7
C     2.3    0.1    0.3
C     3.0    1.3   -0.0
C     2.4    2.4   -0.3
C     4.4    1.2    0.0
C     5.7    1.2    0.0
H     2.2   -2.0    0.9
H     3.9   -1.2    0.7
H     1.2    0.1    0.3
H     1.3    2.5   -0.3
H     2.9    3.3   -0.6
H     6.7    1.1    0.0
