          13
 frame:         4776
C     1.1   -0.1    0.2
C     2.4   -0.0   -0.0
C     3.3    1.2    0.0
O     4.6    0.7   -0.3
C     4.6   -0.7   -0.5
N     5.6   -1.3   -0.7
N     3.2   -1.1   -0.3
H     0.5   -1.0    0.1
H     0.5    0.8    0.4
H     3.3    1.7    1.0
H     3.0    1.9   -0.7
H     5.5   -2.3   -0.8
H     3.0   -2.0   -0.4
