          15
 frame:         2786
C     4.4   -2.0   -0.6
N     4.0   -0.8   -0.8
N     5.0    0.1   -0.4
C     4.6    1.3   -0.6
C     5.4    2.5   -0.2
C     5.3    3.7   -1.1
C     4.7    3.7    0.3
H     3.7   -2.9   -0.9
H     5.4   -2.3   -0.2
H     3.6    1.5   -1.0
H     6.4    2.2    0.2
H     4.6    3.7   -2.0
H     6.2    4.2   -1.3
H     5.2    4.3    1.0
H     3.6    3.7    0.3
