          16
 frame:         4909
C     0.9   -0.0   -0.1
C     2.4   -0.1    0.1
O     2.8   -0.1    1.5
C     3.3   -0.8   -0.9
N     2.9   -1.5   -2.1
C     3.3    0.7   -0.8
O     4.4    1.3   -0.2
H     0.6   -0.1   -1.1
H     0.5    0.9    0.4
H     0.4   -0.9    0.5
H     3.6    0.5    1.5
H     4.1   -1.3   -0.4
H     2.3   -0.9   -2.7
H     2.3   -2.3   -1.9
H     2.9    1.2   -1.7
H     5.2    1.1   -0.7
