          15
 frame:         1914
C     0.9   -0.1   -0.0
C     2.4    0.1   -0.0
C     3.2    1.2   -0.1
N     2.8    2.5   -0.2
C     4.6    0.7   -0.1
C     4.5   -0.7    0.0
N     3.2   -1.1    0.0
H     0.5    0.9   -0.0
H     0.5   -0.6    0.9
H     0.5   -0.6   -0.9
H     3.5    3.1    0.2
H     1.9    2.7    0.2
H     5.5    1.3   -0.1
H     5.3   -1.4    0.1
H     2.9   -2.0    0.1
