          14
 frame:         2064
C     0.9    0.0    0.1
C     2.1    0.1    0.2
C     3.5    0.3    0.3
C     4.3    0.8   -0.7
C     5.8    0.8   -0.5
C     6.7    0.6   -1.7
N     6.4    1.9   -1.3
H    -0.2   -0.1    0.0
H     3.9   -0.1    1.2
H     3.9    1.1   -1.6
H     6.2    0.6    0.5
H     6.3    0.3   -2.7
H     7.7    0.1   -1.5
H     7.2    2.3   -0.7
