          17
 frame:         3630
C     1.0   -0.1   -0.3
C     2.5   -0.0   -0.1
C     3.1   -1.4   -0.1
C     3.2    1.2    0.1
C     2.5    2.5    0.1
C     4.6    1.2    0.3
O     5.3    2.3    0.4
H     0.5    0.9   -0.3
H     0.6   -0.6    0.6
H     0.8   -0.6   -1.2
H     2.7   -2.0    0.7
H     4.2   -1.4    0.1
H     3.0   -1.9   -1.0
H     1.7    2.6    0.9
H     2.0    2.7   -0.9
H     3.2    3.3    0.2
H     5.2    0.3    0.3
