          18
 frame:         4655
C     0.8    0.1   -0.5
C     2.2   -0.1    0.1
C     2.5   -0.1    1.6
C     2.2    1.3    2.2
N     2.6    1.2    3.6
C     3.2   -0.8   -0.8
O     3.3    0.6   -0.7
H     0.8    0.1   -1.6
H     0.5    1.1   -0.1
H     0.2   -0.6   -0.1
H     3.5   -0.4    1.8
H     1.8   -0.8    2.0
H     1.2    1.6    2.0
H     2.9    2.0    1.7
H     1.9    0.6    4.1
H     2.5    2.1    4.1
H     2.9   -1.2   -1.8
H     4.0   -1.4   -0.3
