          15
 frame:         6733
O     3.0   -0.7   -0.5
C     2.0    0.2    0.1
C     2.6    1.6   -0.1
C     1.8    2.6   -0.4
N     4.0    1.7    0.1
C     4.7    2.9    0.2
N     6.0    3.0    0.2
H     2.7   -1.6   -0.1
H     2.0    0.0    1.2
H     1.0    0.1   -0.3
H     0.7    2.4   -0.5
H     2.1    3.6   -0.6
H     4.5    0.8   -0.0
H     4.1    3.7    0.4
H     6.5    2.1    0.1
