          17
 frame:         1261
C     1.0   -0.2   -0.0
C     2.5    0.2   -0.1
C     2.9    1.4    0.7
C     3.9    1.2    1.6
C     4.4   -0.2    1.5
C     3.4   -1.2    2.0
C     3.4   -0.9    0.5
H     0.8   -1.1   -0.6
H     0.4    0.6   -0.4
H     0.7   -0.4    1.0
H     2.8    0.4   -1.1
H     2.3    2.4    0.7
H     4.3    2.0    2.2
H     5.4   -0.4    1.6
H     3.7   -2.1    2.3
H     2.5   -0.8    2.6
H     3.8   -1.6   -0.1
