          15
 frame:         6884
O     1.0    1.3   -1.4
N     2.2    1.6   -0.6
C     3.2    0.7   -0.9
N     3.1   -0.5   -1.4
C     4.6    1.2   -0.4
C     5.7    0.2   -0.0
C     5.8    1.0   -1.3
H     0.3    1.1   -0.7
H     2.5    2.5   -0.9
H     2.1   -0.7   -1.7
H     4.5    2.1    0.2
H     5.4   -0.8   -0.1
H     6.3    0.5    0.8
H     6.5    1.8   -1.4
H     5.6    0.5   -2.2
