          20
 frame:         2435
C     3.0   -1.0   -0.7
C     2.4    0.3    0.0
N     3.4    1.3    0.0
C     3.5    2.3   -1.1
C     2.6    2.3   -2.3
C     3.0    2.7    0.2
C     3.8    3.6    1.2
H     2.2   -1.8   -0.6
H     3.9   -1.3   -0.2
H     3.1   -0.8   -1.8
H     2.2    0.1    1.1
H     1.5    0.6   -0.5
H     4.5    2.6   -1.4
H     1.5    2.0   -2.0
H     2.9    1.5   -3.0
H     2.6    3.2   -2.8
H     1.9    2.8    0.3
H     4.8    3.4    1.1
H     3.5    3.3    2.2
H     3.6    4.6    1.0
