          17
 frame:           64
C     1.0   -0.1    0.0
C     2.5   -0.0    0.0
C     3.1    1.4   -0.0
C     4.6    1.4   -0.0
C     5.1    2.9   -0.1
H     0.6   -1.1    0.0
H     0.6    0.4   -0.9
H     0.6    0.4    0.9
H     2.9   -0.6   -0.8
H     2.9   -0.6    0.9
H     2.7    1.9    0.8
H     2.7    1.9   -0.9
H     5.0    0.9   -0.9
H     5.0    0.9    0.9
H     4.8    3.4   -0.9
H     6.2    2.9   -0.1
H     4.8    3.5    0.8
