          15
 frame:         3861
C     1.0   -0.3    1.7
C     1.7   -0.2    0.6
C     2.6    0.9    0.2
O     3.9    0.4   -0.2
C     4.8    1.4   -0.7
C     4.3    2.0   -1.9
C     4.0    2.6   -3.0
H     0.4   -1.1    1.9
H     1.1    0.5    2.5
H     1.6   -1.0   -0.2
H     2.7    1.7    1.0
H     2.1    1.5   -0.7
H     5.7    0.9   -0.8
H     4.9    2.2    0.1
H     3.7    3.0   -3.9
