          15
 frame:         1360
C     1.1   -0.6   -0.5
C     2.4   -0.3   -0.1
C     3.0    1.0   -0.2
C     4.3    1.3    0.1
C     4.9    2.6   -0.0
C     6.2    2.6   -0.8
C     7.2    2.6   -1.4
H     0.7   -1.6   -0.4
H     0.5    0.2   -0.9
H     3.0   -1.1    0.2
H     2.4    1.8   -0.7
H     4.9    0.5    0.5
H     5.2    3.0    1.0
H     4.2    3.4   -0.4
H     8.1    2.6   -2.0
