          17
 frame:         3885
C     1.1   -0.3   -0.1
C     2.6   -0.1   -0.1
C     3.1    1.3    0.0
O     2.3    2.2    0.1
C     4.5    1.6    0.0
C     5.5    0.7   -0.1
C     7.0    1.0   -0.1
H     0.8   -1.4   -0.1
H     0.7    0.2   -0.9
H     0.7    0.1    0.8
H     3.1   -0.6   -1.0
H     3.1   -0.7    0.8
H     4.8    2.7    0.1
H     5.3   -0.4   -0.2
H     7.2    2.1   -0.0
H     7.5    0.7   -1.0
H     7.5    0.5    0.7
