          13
 frame:         7021
C     0.9   -0.1    0.1
C     2.4    0.0   -0.1
C     2.9    1.4   -0.1
N     2.9    2.2    0.9
C     3.3    3.5    0.6
N     3.8    3.7   -0.7
S     3.5    2.3   -1.5
H     0.6   -1.1    0.1
H     0.4    0.4   -0.7
H     0.6    0.4    1.1
H     2.7   -0.5   -1.0
H     2.9   -0.5    0.7
H     3.4    4.3    1.3
