          17
 frame:         3173
C     1.3    0.1    0.9
C     2.4   -0.0   -0.1
C     2.5   -1.3   -0.9
C     3.2   -1.0   -2.2
O     4.4   -0.2   -2.0
C     3.2    0.5   -2.4
C     2.5    1.1   -1.2
H     1.3    1.1    1.4
H     1.3   -0.7    1.6
H     0.3    0.0    0.3
H     3.4    0.1    0.5
H     1.5   -1.7   -1.1
H     3.0   -2.1   -0.3
H     3.2   -1.7   -3.0
H     3.2    0.9   -3.3
H     3.0    2.0   -0.8
H     1.4    1.4   -1.5
