          17
 frame:         5504
C     4.0   -1.2   -1.1
C     3.3   -0.5   -0.0
O     3.7   -0.9    1.3
C     3.4    1.1   -0.2
C     4.8    1.6   -0.0
N     5.7    1.0    0.6
N     7.0    1.6    0.7
H     3.5   -1.0   -2.1
H     3.8   -2.3   -1.0
H     5.0   -1.0   -1.2
H     2.2   -0.7   -0.0
H     4.6   -0.5    1.4
H     2.8    1.6    0.6
H     3.0    1.4   -1.2
H     5.0    2.6   -0.5
H     7.4    1.3    1.5
H     7.0    2.6    0.6
