          12
 frame:         4916
C     0.9    0.0    0.0
C     2.3    0.1    0.1
O     2.9    1.2    0.4
C     4.3    1.2   -0.0
O     5.0    0.1    0.5
N     4.4   -1.2    0.1
C     3.1   -1.1   -0.1
H     0.3    0.9    0.2
H     0.4   -0.9   -0.2
H     4.8    2.1    0.4
H     4.3    1.1   -1.1
H     2.7   -2.0   -0.4
