          14
 frame:         6476
O     1.3   -0.4    0.2
C     2.6   -0.2   -0.1
C     3.1   -0.5   -1.4
C     3.1    0.9   -1.0
C     4.4    1.6   -0.7
C     5.1    2.1   -1.9
N     5.6    2.5   -2.9
H     1.0    0.3    0.9
H     3.3   -0.5    0.8
H     2.4   -0.8   -2.2
H     4.1   -1.0   -1.5
H     2.3    1.5   -1.4
H     5.1    1.0   -0.2
H     4.2    2.5   -0.0
