          17
 frame:         2421
C     1.0   -0.1    0.1
C     2.5    0.0    0.1
C     3.0   -0.8   -1.1
N     3.4   -1.4   -1.9
N     3.0    1.4    0.0
C     2.5    2.2    1.2
C     4.5    1.4    0.0
H     0.6    0.3    1.0
H     0.7   -1.1   -0.0
H     0.6    0.5   -0.8
H     2.9   -0.5    1.0
H     1.4    2.3    1.1
H     3.0    3.2    1.1
H     2.8    1.8    2.1
H     4.9    0.8   -0.8
H     5.0    1.0    0.9
H     4.8    2.4   -0.1
