          13
 frame:         6127
N     0.9   -0.2   -0.0
C     2.3   -0.1    0.0
C     3.1    1.1    0.1
N     4.5    0.6    0.1
C     4.5   -0.8   -0.0
C     3.2   -1.2   -0.1
O     2.8   -2.5   -0.2
H     0.5    0.3   -0.8
H     0.5    0.1    0.9
H     2.9    2.1    0.2
H     5.3    1.2    0.1
H     5.5   -1.3   -0.1
H     1.8   -2.4   -0.2
