          18
 frame:         5965
C     3.7   -0.6    1.2
O     3.2    0.7    1.7
C     3.1    1.7    0.7
C     2.3    2.8    1.3
N     3.0    3.4    2.5
C     4.5    2.1    0.2
C     5.0    1.9   -1.0
H     3.7   -1.3    2.1
H     4.8   -0.5    0.9
H     3.1   -1.0    0.4
H     2.6    1.2   -0.2
H     1.3    2.4    1.5
H     2.2    3.6    0.5
H     3.0    2.7    3.2
H     2.4    4.2    2.8
H     5.1    2.6    1.0
H     4.4    1.4   -1.8
H     6.0    2.3   -1.3
