          14
 frame:         5020
C     0.9   -0.2    0.2
C     2.5    0.1   -0.1
C     2.9   -0.7   -1.3
C     3.3   -1.2   -2.3
C     2.7    1.6   -0.1
N     3.4    2.1   -1.2
O     2.3    2.3    0.8
H     0.7    0.4    1.1
H     0.8   -1.3    0.4
H     0.3    0.1   -0.7
H     3.0   -0.3    0.8
H     3.7   -1.8   -3.1
H     3.6    1.4   -2.0
H     3.6    3.0   -1.3
