          15
 frame:         3793
C     0.7   -0.2    0.3
C     2.0    0.1   -0.2
C     2.6    1.4   -0.4
C     2.0    2.7   -0.1
O     3.9    1.4   -0.9
C     4.1    1.9   -2.1
O     3.3    2.3   -2.9
H     0.1   -0.7   -0.5
H     0.1    0.7    0.6
H     0.8   -0.8    1.2
H     2.6   -0.7   -0.6
H     1.1    2.6    0.4
H     1.9    3.3   -1.0
H     2.7    3.2    0.6
H     5.2    1.9   -2.3
