          16
 frame:          667
C     1.0    0.1   -0.1
C     2.5    0.0   -0.1
C     3.4   -0.7   -1.1
C     3.5    0.8   -1.0
C     2.9    1.8   -2.0
O     4.7    1.4   -0.4
H     0.6    0.9    0.5
H     0.6   -0.8    0.3
H     0.7    0.2   -1.1
H     2.9   -0.1    1.0
H     2.8   -1.1   -2.0
H     4.2   -1.3   -0.8
H     2.0    1.4   -2.5
H     3.7    1.9   -2.8
H     2.7    2.7   -1.6
H     4.9    0.8    0.3
