          14
 frame:         4662
C     0.9    0.0    0.1
C     2.4    0.1    0.0
C     3.2    1.2    0.1
C     4.6    1.1   -0.0
N     5.3   -0.0    0.2
O     4.5   -1.2    0.4
C     3.2   -1.2   -0.3
H     0.6   -0.6    1.0
H     0.5   -0.4   -0.8
H     0.5    1.0    0.3
H     2.7    2.2    0.2
H     5.2    1.9   -0.1
H     2.7   -2.1    0.1
H     3.4   -1.3   -1.4
