          15
 frame:         3345
C     1.0    0.0    0.0
C     2.4   -0.0    0.0
C     3.3    1.2    0.1
O     4.6    0.7   -0.4
C     4.6   -0.7   -0.5
C     5.6   -1.3   -1.0
C     3.2   -1.2   -0.0
H     0.4   -0.9   -0.0
H     0.5    1.0    0.0
H     3.4    1.5    1.1
H     3.0    2.0   -0.5
H     5.6   -2.4   -1.1
H     6.5   -0.8   -1.3
H     2.9   -2.0   -0.7
H     3.4   -1.7    1.0
