          12
 frame:          196
C     1.0   -0.1    0.0
N     2.4    0.0   -0.1
C     2.9    1.4   -0.1
C     4.4    1.4    0.0
O     5.1    2.3   -0.5
H     0.7   -1.1   -0.0
H     0.4    0.5   -0.8
H     0.7    0.3    1.0
H     2.7   -0.5   -1.0
H     2.5    1.9    0.8
H     2.6    2.0   -1.0
H     4.8    0.6    0.6
