          13
 frame:         3522
C     0.9    0.4    0.3
C     2.2    0.1    0.3
C     3.2    1.1    0.0
O     2.8    2.5   -0.2
C     3.5    3.0    0.9
C     4.0    1.6    1.2
O     4.8    1.2    2.0
H     0.2   -0.4    0.5
H     0.5    1.4    0.1
H     2.6   -0.9    0.5
H     3.9    0.8   -0.8
H     4.2    3.8    0.6
H     2.8    3.5    1.7
