          18
 frame:         5320
C     1.1   -0.1   -0.4
C     2.6   -0.2   -0.1
N     3.2    1.1    0.2
C     4.6    1.1    0.4
C     5.5    1.2   -0.8
C     5.4    2.4    0.2
O     6.4    2.6    1.2
H     0.7   -1.1   -0.7
H     0.9    0.6   -1.2
H     0.6    0.2    0.5
H     3.1   -0.6   -1.1
H     2.8   -0.9    0.7
H     2.7    1.5    1.0
H     5.0    0.5    1.2
H     5.1    1.4   -1.8
H     6.5    0.7   -0.7
H     4.8    3.2   -0.1
H     7.1    3.1    0.7
