          18
 frame:         5637
C     2.1   -0.9   -0.6
N     1.9    0.3    0.2
C     3.1    1.1    0.2
C     3.4    2.1   -0.9
C     3.0    2.6    0.5
O     3.9    3.2    1.3
C     4.1    4.6    1.0
H     1.2   -1.5   -0.5
H     3.0   -1.6   -0.1
H     2.4   -0.7   -1.6
H     1.6    0.1    1.1
H     4.0    0.7    0.7
H     2.7    2.1   -1.7
H     4.4    2.2   -1.2
H     1.9    3.0    0.5
H     4.8    5.0    1.7
H     3.1    5.2    1.1
H     4.4    4.7   -0.1
