          18
 frame:         4814
C     1.0    0.0    0.0
C     2.5    0.0    0.1
N     3.1    1.1    0.8
C     4.5    0.7    1.2
C     4.4   -0.9    1.5
C     3.1   -1.3    0.6
O     3.4   -2.3   -0.4
H     0.6   -0.8   -0.6
H     0.6    1.0   -0.4
H     0.6   -0.1    1.0
H     2.9    0.1   -1.0
H     2.6    1.2    1.7
H     5.1    0.9    0.3
H     4.9    1.2    2.0
H     5.3   -1.4    1.2
H     4.2   -1.1    2.5
H     2.4   -1.8    1.3
H     4.0   -1.9   -1.0
