          20
 frame:         5221
C     0.9   -0.1   -0.0
C     2.5   -0.0    0.0
C     3.0    1.4    0.0
O     4.4    1.4    0.1
C     4.9    2.8    0.1
C     6.4    2.7    0.0
N     6.9    2.1   -1.2
H     0.6   -1.2   -0.0
H     0.5    0.3   -0.9
H     0.5    0.3    0.8
H     2.9   -0.6   -0.9
H     2.9   -0.5    0.9
H     2.5    1.9    0.9
H     2.6    1.9   -0.9
H     4.5    3.3    0.9
H     4.5    3.3   -0.8
H     6.7    2.2    0.9
H     6.8    3.7    0.1
H     6.5    1.2   -1.3
H     7.9    2.0   -1.2
