          22
 frame:         2363
C     2.7   -1.6   -0.2
C     4.0   -0.8   -0.4
C     4.2   -0.5   -1.9
N     3.9    0.5    0.3
C     5.1    1.3    0.5
C     4.7    2.6    1.2
C     6.3    0.6    1.1
H     2.5   -1.8    0.9
H     2.7   -2.5   -0.8
H     1.8   -1.0   -0.6
H     4.8   -1.4   -0.1
H     3.4    0.2   -2.3
H     4.2   -1.4   -2.5
H     5.1    0.0   -2.1
H     3.5    0.3    1.3
H     5.3    1.6   -0.6
H     4.4    2.3    2.3
H     3.9    3.1    0.8
H     5.5    3.3    1.3
H     6.1    0.3    2.1
H     7.2    1.3    1.1
H     6.6   -0.3    0.5
