          20
 frame:         1946
C     2.3   -1.4   -0.5
C     1.9    0.0    0.0
C     3.1    0.9    0.4
C     3.9    0.5    1.6
C     3.9    1.6   -0.7
N     2.9    2.4    0.1
C     3.4    3.4    1.0
H     1.4   -1.9   -0.8
H     2.9   -2.0    0.3
H     3.0   -1.3   -1.4
H     1.3   -0.1    0.9
H     1.4    0.6   -0.8
H     4.8    1.1    1.8
H     4.3   -0.6    1.4
H     3.3    0.5    2.5
H     3.5    1.5   -1.8
H     4.9    1.9   -0.6
H     2.8    3.5    1.9
H     3.5    4.3    0.5
H     4.5    3.2    1.4
