          16
 frame:         5233
C     1.2   -0.9    1.1
C     2.0   -1.2   -0.2
C     2.9   -2.3   -0.1
O     1.1   -1.5   -1.3
C     0.4   -0.3   -1.8
C    -0.3   -0.7   -3.0
N    -0.9   -0.9   -4.0
H     0.5   -0.0    1.0
H     1.9   -0.7    1.9
H     0.6   -1.8    1.3
H     2.6   -0.2   -0.5
H     2.4   -3.3    0.1
H     3.7   -2.2    0.7
H     3.5   -2.5   -1.1
H     1.1    0.5   -2.0
H    -0.4    0.0   -1.1
