          15
 frame:         5375
C     1.9   -0.9    0.5
C     3.2   -0.3   -0.2
N     3.3    1.1    0.1
C     4.4    1.7   -0.3
N     4.6    3.1   -0.0
C     5.7    3.8   -0.5
O     5.8    5.0   -0.2
H     1.8   -1.9    0.2
H     1.0   -0.3    0.2
H     2.0   -0.8    1.6
H     3.1   -0.4   -1.3
H     4.1   -0.9    0.1
H     5.1    1.3   -0.9
H     3.9    3.6    0.6
H     6.3    3.2   -1.1
