          15
 frame:          618
N     0.8    0.1    0.1
C     2.3    0.2    0.1
C     2.8    1.6    0.1
C     2.0    2.7    0.2
C     4.3    1.8    0.1
C     5.2    0.8    0.1
H     0.5   -0.8    0.2
H     0.5    0.4   -0.9
H     2.8   -0.4   -0.7
H     2.6   -0.3    1.1
H     0.9    2.6    0.3
H     2.4    3.7    0.2
H     4.6    2.8    0.1
H     5.0   -0.2    0.1
H     6.3    1.1    0.1
