          13
 frame:          427
C     1.0   -0.2    0.0
C     2.5   -0.1    0.0
C     3.1    1.1    0.0
C     2.5    2.5    0.0
C     4.5    1.1    0.0
N     5.7    1.2    0.0
H     0.7   -1.3   -0.0
H     0.5    0.2   -0.9
H     0.5    0.2    0.9
H     3.1   -1.0    0.0
H     1.4    2.4   -0.0
H     2.8    3.1   -0.9
H     2.8    3.1    0.9
