          17
 frame:         4086
C     0.7    1.6   -0.6
C     2.1    1.9   -0.9
O     2.9    1.3    0.2
C     4.3    1.5   -0.0
O     4.8    2.8   -0.0
C     4.8    3.5    1.2
C     4.3    3.0    2.4
H     0.0    1.9   -1.4
H     0.3    2.0    0.3
H     0.5    0.5   -0.5
H     2.3    3.0   -1.0
H     2.4    1.4   -1.9
H     4.6    1.1   -1.0
H     4.8    0.9    0.8
H     5.3    4.4    1.1
H     3.7    2.1    2.5
H     4.5    3.7    3.3
