          22
 frame:         2201
C     1.4    0.6   -2.2
C     2.5    1.5   -1.6
C     3.9    0.8   -1.5
C     5.0    1.6   -0.8
C     6.3    0.8   -0.6
N     5.3    2.8   -1.7
C     6.1    3.8   -1.0
H     0.5    1.1   -2.3
H     1.3   -0.3   -1.6
H     1.7    0.3   -3.2
H     2.2    1.8   -0.6
H     2.6    2.4   -2.2
H     4.2    0.5   -2.5
H     3.8   -0.1   -0.9
H     4.6    1.9    0.2
H     6.7    0.5   -1.6
H     6.0   -0.1   -0.0
H     7.0    1.4   -0.1
H     4.4    3.3   -1.9
H     7.2    3.5   -0.9
H     5.8    4.1    0.0
H     6.1    4.8   -1.6
