          19
 frame:         1399
C     0.8    0.6   -1.0
C     2.3    0.7   -0.9
C     2.9    1.5    0.0
C     4.4    1.6    0.1
C     4.9    3.0   -0.1
C     4.7    3.6   -1.4
C     5.5    3.7    0.9
H     0.5   -0.5   -0.8
H     0.4    0.9   -2.0
H     0.3    1.1   -0.2
H     2.9    0.1   -1.6
H     2.4    2.0    0.8
H     4.9    1.0   -0.7
H     4.8    1.2    1.1
H     5.2    3.1   -2.2
H     5.0    4.7   -1.5
H     3.6    3.6   -1.7
H     5.7    3.2    1.9
H     5.9    4.7    0.8
