          18
 frame:         5987
C     1.6    0.1    0.7
O     2.9    0.2    0.2
C     3.4    1.5    0.4
C     4.7    1.6   -0.4
O     4.5    1.2   -1.8
C     5.4    2.9   -0.4
N     4.6    4.0   -0.9
H     1.2   -0.9    0.5
H     0.9    0.9    0.3
H     1.6    0.3    1.8
H     3.6    1.7    1.4
H     2.8    2.3   -0.0
H     5.4    0.8    0.0
H     3.9    0.5   -1.8
H     6.4    2.8   -0.9
H     5.7    3.1    0.7
H     4.4    3.7   -1.9
H     5.1    4.8   -0.9
