          14
 frame:         2803
C     2.7   -1.4    1.0
N     3.5   -0.5    0.1
N     3.4    0.8    0.4
C     4.4    1.6   -0.1
C     4.2    3.1    0.1
C     5.4    3.6    0.8
N     6.3    4.1    1.4
H     2.7   -2.4    0.7
H     1.7   -1.0    1.1
H     3.1   -1.4    2.1
H     4.4   -0.9   -0.1
H     5.3    1.2   -0.6
H     3.3    3.3    0.7
H     4.2    3.6   -0.8
