          15
 frame:          999
C     1.0   -0.0   -0.1
C     2.5    0.0   -0.1
C     3.1   -0.9   -1.1
C     3.0    1.4   -0.1
N     2.8    2.1   -1.3
O     3.7    1.9    0.8
H     0.5    0.6    0.6
H     0.6   -1.1    0.1
H     0.6    0.3   -1.1
H     2.8   -0.3    0.9
H     2.8   -0.7   -2.1
H     2.8   -2.0   -1.0
H     4.2   -0.9   -1.1
H     2.2    1.7   -2.1
H     3.1    3.1   -1.4
