          15
 frame:         3079
C     1.6   -0.1    0.2
C     1.0   -1.5    0.5
C    -0.2   -1.1   -0.4
C    -1.4   -0.4    0.3
C    -1.3    0.9    0.1
O    -0.2    1.3   -0.7
C     0.6    0.1   -0.9
H     2.7   -0.1   -0.1
H     1.5    0.6    1.1
H     1.6   -2.4    0.1
H     0.7   -1.8    1.6
H    -0.6   -1.9   -1.1
H    -2.2   -0.9    0.8
H    -2.0    1.7    0.4
H     1.0    0.1   -1.9
