          20
 frame:         2026
C     1.0   -0.2   -0.4
C     2.5   -0.1   -0.6
C     3.2    0.7    0.5
C     4.7    0.9    0.3
C     5.6    1.2    1.4
C     5.7   -0.2    0.8
N     6.9   -0.6    0.1
H     0.5   -0.8   -1.2
H     0.5    0.7   -0.4
H     0.8   -0.7    0.6
H     2.7    0.3   -1.6
H     3.0   -1.1   -0.6
H     3.0    0.3    1.5
H     2.7    1.7    0.5
H     5.0    1.3   -0.7
H     5.1    1.3    2.4
H     6.4    1.9    1.2
H     5.2   -1.0    1.4
H     7.4    0.2   -0.2
H     6.6   -1.2   -0.7
