          17
 frame:          551
C     0.9   -0.6    0.3
N     2.2   -0.3   -0.4
C     2.7   -1.4   -1.2
C     2.1    0.9   -1.1
C     1.9    2.1   -0.3
C     0.9    3.1   -0.5
H     0.6    0.2    0.9
H     1.1   -1.5    0.9
H     0.1   -0.9   -0.5
H     2.8   -2.3   -0.6
H     3.7   -1.1   -1.6
H     2.0   -1.6   -2.0
H     1.3    0.9   -1.9
H     3.1    1.1   -1.7
H     2.6    2.3    0.6
H     0.2    3.0   -1.3
H     0.9    3.9    0.2
