          16
 frame:         2366
C     1.0   -0.2   -0.2
C     2.5    0.1    0.0
C     3.3   -0.8   -0.9
N     3.9   -1.4   -1.6
C     2.9    1.6   -0.1
C     2.7    2.1   -1.5
C     3.3    2.2    0.9
H     0.4    0.4    0.5
H     0.8   -1.3    0.0
H     0.7    0.0   -1.2
H     2.8   -0.2    1.1
H     1.6    2.1   -1.9
H     3.3    1.6   -2.2
H     3.0    3.2   -1.5
H     3.4    1.8    1.9
H     3.5    3.3    0.8
