          12
 frame:         6657
O     1.4   -0.2   -0.8
C     2.6   -0.1   -0.1
C     3.0    1.4   -0.0
C     2.3    2.4   -0.6
O     3.0    3.6   -0.3
C     4.1    3.1    0.4
N     4.1    1.8    0.6
H     1.1   -1.2   -0.8
H     3.4   -0.7   -0.6
H     2.5   -0.5    1.0
H     1.4    2.6   -1.1
H     4.8    3.8    0.7
