          15
 frame:          325
C     0.8    1.3   -0.6
C    -0.3    1.0    0.3
C    -1.4   -0.0   -0.2
C    -0.8   -1.4    0.1
N     0.7   -1.1   -0.1
C     1.0    0.2    0.4
H     0.7    1.1   -1.7
H     1.3    2.3   -0.4
H    -0.6    1.7    1.1
H    -2.3    0.1    0.4
H    -1.6    0.1   -1.2
H    -1.0   -1.7    1.1
H    -1.1   -2.1   -0.6
H     1.3   -1.8    0.3
H     1.6    0.3    1.2
