          18
 frame:         2181
C     1.0   -0.1    0.0
C     2.5   -0.0   -0.0
C     3.0    1.4   -0.0
C     3.4    2.5   -0.0
C     3.9    3.9   -0.0
C     5.0    4.0   -1.1
N     2.7    4.8   -0.2
H     0.6   -1.1    0.0
H     0.6    0.4   -0.9
H     0.6    0.4    0.9
H     2.9   -0.6   -0.9
H     2.9   -0.5    0.9
H     4.3    4.1    0.9
H     4.6    3.8   -2.1
H     5.8    3.4   -0.9
H     5.4    5.1   -1.1
H     2.2    4.6   -1.0
H     3.1    5.8   -0.3
