          21
 frame:         3676
C     3.0   -1.0   -0.9
C     2.5   -0.1    0.2
C     3.0    1.4    0.1
C     2.4    2.2    1.2
C     4.5    1.5    0.2
C     5.2    0.9    1.4
O     6.7    1.1    1.4
H     2.5   -2.0   -0.8
H     4.1   -1.2   -0.8
H     2.8   -0.6   -1.9
H     2.7   -0.5    1.2
H     1.4   -0.0    0.2
H     2.7    1.8   -0.8
H     2.6    1.9    2.2
H     1.3    2.2    1.1
H     2.7    3.3    1.2
H     4.8    2.5    0.1
H     5.0    0.9   -0.7
H     5.0   -0.2    1.6
H     4.9    1.4    2.3
H     7.0    0.7    0.6
