          16
 frame:         1796
C     1.3   -0.2    0.1
C     2.7   -0.1   -0.2
C     3.3   -0.4   -1.5
N     3.2    1.0   -1.0
C     4.5    1.7   -0.6
C     5.2    2.2   -1.8
C     5.8    2.7   -2.7
H     1.0    0.5    0.9
H     1.0   -1.2    0.4
H     0.7    0.1   -0.8
H     3.4   -0.3    0.7
H     2.6   -0.6   -2.3
H     4.3   -0.8   -1.6
H     5.1    0.9   -0.1
H     4.2    2.5    0.1
H     6.3    3.2   -3.5
