          17
 frame:         4161
C     1.1   -0.5    0.3
O     2.5   -0.2    0.4
C     2.8    1.2    0.2
C     2.4    2.0    1.4
C     1.4    3.0    1.3
C     4.3    1.2   -0.0
C     4.9    1.8   -1.1
H     1.0   -1.6    0.5
H     0.7   -0.3   -0.7
H     0.5    0.0    1.1
H     2.3    1.5   -0.7
H     2.8    1.8    2.3
H     0.9    3.2    0.3
H     1.1    3.5    2.2
H     4.9    0.8    0.8
H     4.3    2.3   -1.9
H     6.0    1.9   -1.1
