          21
 frame:         2981
N     0.8    1.2    1.5
C     2.1    0.9    0.8
C     2.9    2.1    0.7
C     4.3    1.9    0.0
C     5.1    3.2   -0.1
C     6.5    3.0   -0.8
N     7.3    4.2   -0.8
H     0.2    0.3    1.5
H     0.9    1.5    2.5
H     1.9    0.5   -0.2
H     2.6    0.1    1.4
H     3.1    2.5    1.8
H     2.3    2.9    0.2
H     4.1    1.5   -1.0
H     4.8    1.1    0.6
H     5.3    3.6    0.9
H     4.6    4.0   -0.6
H     6.2    2.5   -1.8
H     7.0    2.2   -0.2
H     6.8    4.9   -1.3
H     8.2    4.0   -1.2
