          17
 frame:         2536
C     2.0   -0.5    0.3
C     3.4   -0.5   -0.4
N     3.7    0.9   -0.8
C     4.8    1.4   -0.2
N     5.2    2.7   -0.6
C     6.3    3.3   -0.0
C     6.7    4.6   -0.3
H     1.7   -1.5    0.5
H     1.2   -0.1   -0.4
H     1.9    0.1    1.2
H     3.4   -1.1   -1.3
H     4.1   -0.9    0.3
H     5.4    0.9    0.5
H     4.6    3.2   -1.2
H     6.9    2.7    0.7
H     6.2    5.2   -1.0
H     7.6    4.9    0.1
