          19
 frame:         1176
C    -1.8    0.7    0.3
C    -1.8   -0.7   -0.3
C    -0.2   -0.8    0.1
C     1.1   -1.2   -0.5
C     2.0   -0.0   -0.0
C     1.1    1.1    0.5
C    -0.2    0.7   -0.1
H    -2.4    1.5   -0.2
H    -1.9    0.7    1.4
H    -1.9   -0.7   -1.4
H    -2.4   -1.5    0.2
H    -0.2   -1.0    1.1
H     1.4   -2.2   -0.2
H     1.0   -1.2   -1.6
H     2.7   -0.4    0.8
H     2.7    0.3   -0.8
H     1.1    1.1    1.6
H     1.5    2.1    0.2
H    -0.2    0.9   -1.2
