          15
 frame:         3280
C     0.8   -0.0   -0.2
C     2.2   -0.0   -0.0
C     2.9    1.3    0.3
C     4.3    1.2   -0.2
O     5.1    0.0    0.2
C     4.3   -1.1    0.2
C     3.0   -1.2    0.0
H     0.3    0.9   -0.2
H     0.3   -0.9   -0.5
H     2.4    2.2   -0.0
H     3.0    1.4    1.4
H     5.0    2.1    0.1
H     4.3    1.2   -1.3
H     5.0   -2.0    0.3
H     2.6   -2.2   -0.1
