          19
 frame:         2447
C     2.3   -0.5   -1.4
C     2.4    0.1    0.0
N     3.2    1.3    0.1
C     2.7    2.5   -0.5
C     3.3    3.3    0.6
N     4.6    3.9    0.2
C     3.4    1.9    1.4
H     1.7   -1.4   -1.4
H     3.3   -0.7   -1.8
H     1.8    0.2   -2.1
H     2.8   -0.7    0.7
H     1.4    0.3    0.4
H     1.6    2.6   -0.5
H     3.0    2.8   -1.6
H     2.7    4.1    1.1
H     5.2    3.2   -0.1
H     5.1    4.3    1.1
H     4.3    1.7    1.9
H     2.5    1.8    2.0
