          12
 frame:         5133
C     1.0   -0.0    0.1
C     2.3   -0.0    0.0
C     3.0   -1.2   -0.2
N     3.6   -2.2   -0.3
C     3.2    1.2    0.0
C     2.8    2.4    0.8
O     3.9    1.5    1.2
H     0.4    0.9    0.2
H     0.4   -0.9    0.1
H     3.7    1.4   -0.9
H     1.9    2.4    1.5
H     3.1    3.4    0.5
