          19
 frame:         3891
C     1.0   -0.1   -0.3
C     2.4   -0.1    0.1
C     3.0    1.3    0.1
O     2.4    2.1    1.0
C     4.5    1.2    0.3
C     5.2    2.0    1.2
C     6.7    1.9    1.5
H     0.6   -1.2   -0.3
H     0.8    0.2   -1.4
H     0.4    0.5    0.3
H     3.0   -0.8   -0.6
H     2.6   -0.6    1.1
H     2.9    1.7   -0.9
H     2.5    1.8    1.9
H     5.1    0.5   -0.2
H     4.6    2.8    1.8
H     7.2    1.2    0.9
H     6.9    1.7    2.5
H     7.2    2.9    1.2
