          15
 frame:         5826
C     2.9    0.1    1.8
N     2.8    0.3    0.4
N     3.1    1.6    0.0
C     2.5    3.0    0.4
C     3.6    3.6   -0.5
C     4.1    2.1   -0.8
O     5.0    1.6   -1.4
H     2.6   -1.0    2.0
H     2.3    0.7    2.5
H     4.0    0.1    2.1
H     1.8    0.1    0.0
H     2.6    3.2    1.5
H     1.5    3.1    0.1
H     3.3    4.1   -1.4
H     4.4    4.2    0.0
