          14
 frame:          693
C     1.0    0.0    0.1
C     2.5    0.0   -0.1
C     3.3   -1.0   -0.1
O     4.7   -0.7   -0.2
C     4.7    0.8   -0.3
C     3.3    1.3    0.0
H     0.6   -1.0    0.0
H     0.5    0.6   -0.8
H     0.6    0.5    1.0
H     3.1   -2.1   -0.2
H     5.0    1.0   -1.4
H     5.5    1.1    0.3
H     3.0    2.1   -0.7
H     3.3    1.7    1.0
