          16
 frame:         5574
C     0.9    0.6   -0.9
C     1.8   -0.3   -0.2
O     3.1    0.4   -0.0
N     4.1   -0.5    0.6
C     5.0   -1.1   -0.4
C     4.4   -0.2    1.9
O     5.4   -0.6    2.4
H    -0.1    0.1   -1.0
H     1.2    0.9   -1.9
H     0.7    1.5   -0.3
H     2.0   -1.3   -0.8
H     1.5   -0.6    0.8
H     4.4   -1.9   -1.0
H     5.7   -1.6    0.2
H     5.4   -0.4   -1.1
H     3.7    0.5    2.3
