          14
 frame:         7000
C     0.8   -0.2   -0.1
C     2.3   -0.0    0.1
C     2.8    1.4    0.0
C     3.3    2.2    1.1
N     3.7    3.5    0.7
C     3.5    3.7   -0.6
S     2.8    2.3   -1.4
H     0.5   -1.2   -0.0
H     0.5    0.2   -1.1
H     0.2    0.4    0.6
H     2.9   -0.7   -0.6
H     2.6   -0.4    1.1
H     3.5    1.8    2.1
H     3.6    4.6   -1.1
