          16
 frame:         5027
C     1.5   -0.5   -0.6
C     2.9   -0.2    0.0
C     3.2    1.2    0.3
C     4.2    1.9   -0.3
C     4.4    3.3    0.1
N     5.5    3.9   -0.6
O     3.7    4.0    0.8
H     1.3   -1.5   -0.7
H     1.4    0.1   -1.6
H     0.7   -0.0    0.1
H     3.7   -0.7   -0.7
H     3.0   -0.8    1.0
H     2.5    1.7    0.9
H     4.9    1.4   -1.0
H     6.1    3.4   -1.2
H     5.7    4.9   -0.4
