          15
 frame:         5452
C     1.0    0.5    0.1
C     2.3   -0.2    0.0
N     2.2   -1.6   -0.1
O     1.0   -2.2   -0.5
N     3.4    0.4    0.0
C     4.6   -0.3    0.1
C     5.7    0.0   -0.7
H     1.2    1.6    0.2
H     0.4    0.2    1.0
H     0.3    0.3   -0.7
H     3.0   -2.0   -0.7
H     0.7   -2.7    0.2
H     4.7   -1.2    0.8
H     5.7    0.8   -1.4
H     6.6   -0.6   -0.6
