          19
 frame:         2304
C     0.9   -0.1    0.2
C     2.4   -0.2   -0.1
C     2.7   -1.1   -1.2
C     3.0    1.2   -0.3
N     2.9    2.0    0.9
C     3.2    3.4    0.9
N     3.5    4.2   -0.1
H     0.6    0.5    1.0
H     0.5   -1.1    0.4
H     0.4    0.3   -0.7
H     2.9   -0.6    0.8
H     2.3   -0.7   -2.2
H     2.3   -2.1   -1.1
H     3.8   -1.2   -1.4
H     2.5    1.7   -1.1
H     4.1    1.1   -0.6
H     2.9    1.6    1.8
H     3.2    3.8    1.9
H     3.6    3.6   -1.0
