          16
 frame:         2969
N     2.8   -0.7   -1.2
C     2.4   -0.0    0.0
C     3.0    1.4    0.0
C     2.5    2.2    1.3
C     1.7    3.2    1.2
C     4.5    1.4   -0.0
C     5.7    1.4   -0.1
H     2.4   -1.6   -1.3
H     3.8   -0.8   -1.3
H     2.7   -0.5    0.9
H     1.3    0.1    0.1
H     2.6    1.9   -0.9
H     2.9    1.8    2.2
H     1.3    3.6    0.3
H     1.4    3.7    2.1
H     6.7    1.3   -0.1
