          15
 frame:         1361
C     2.6   -1.1   -0.3
C     2.0    0.1   -0.2
C     2.8    1.4   -0.1
C     2.1    2.6   -0.0
C     4.3    1.4    0.1
C     5.0    1.0   -1.1
C     5.6    0.7   -2.1
H     2.0   -2.0   -0.4
H     3.7   -1.3   -0.2
H     1.0    0.2   -0.3
H     1.0    2.6   -0.1
H     2.6    3.5    0.1
H     4.6    0.7    0.9
H     4.6    2.4    0.4
H     6.1    0.5   -3.0
