          12
 frame:         6685
O     1.1   -0.2    0.4
C     2.3   -0.0    0.1
C     2.9    1.3   -0.0
N     4.2    1.4   -0.3
O     4.6    2.7   -0.4
C     3.4    3.6   -0.1
C     2.2    2.6    0.1
H     3.0   -0.9   -0.1
H     3.3    4.2   -1.1
H     3.7    4.2    0.7
H     1.4    2.8   -0.6
H     1.8    2.8    1.2
