          13
 frame:         4863
C     1.1    0.1    0.0
C     2.6    0.0   -0.0
N     3.5    1.1    0.0
N     4.8    0.5   -0.0
C     4.6   -0.8   -0.0
C     5.7   -1.8   -0.0
O     3.3   -1.2   -0.0
H     0.8   -1.0   -0.0
H     0.8    0.6   -0.9
H     0.8    0.6    0.9
H     5.2   -2.8   -0.0
H     6.3   -1.7    0.8
H     6.3   -1.8   -0.9
