          12
 frame:         7114
C     1.1    0.1   -0.0
S     2.9   -0.1   -0.0
O     3.3   -0.7    1.2
O     3.3   -0.7   -1.3
C     3.4    1.7   -0.0
C     4.9    1.8   -0.0
N     6.0    1.9   -0.0
H     0.8    0.6   -0.9
H     0.8    0.6    0.9
H     0.7   -0.9   -0.0
H     3.0    2.1    0.9
H     3.0    2.1   -0.9
