          12
 frame:         6926
C     0.8    0.1   -0.0
C     2.3    0.0   -0.0
C     3.2    1.1    0.0
N     4.5    0.7    0.0
C     4.8   -0.7    0.0
O     5.9   -1.2    0.0
S     3.2   -1.5    0.0
H     0.5    1.2   -0.0
H     0.4   -0.4    0.9
H     0.4   -0.4   -0.9
H     3.0    2.1    0.0
H     5.3    1.3    0.0
