          20
 frame:         2455
C     2.6   -1.4   -0.5
C     2.0   -0.1    0.0
N     1.1   -0.3    1.2
C     3.1    1.0    0.4
C     4.0    0.6    1.5
C     3.6    1.8   -0.8
C     2.7    2.4    0.2
H     3.3   -1.2   -1.3
H     1.8   -2.1   -0.8
H     3.2   -1.9    0.3
H     1.4    0.3   -0.8
H     1.6   -0.7    2.0
H     0.3   -0.9    0.9
H     4.8    1.4    1.6
H     4.6   -0.3    1.3
H     3.5    0.5    2.5
H     3.2    1.5   -1.8
H     4.7    2.0   -0.8
H     3.1    3.1    0.9
H     1.6    2.6   -0.1
