          20
 frame:         1805
C     1.0    0.1   -0.1
C     2.5    0.0   -0.0
C     3.4   -0.7   -1.1
N     2.8   -1.4   -2.2
C     3.4    0.8   -1.0
C     2.8    1.7   -2.1
C     4.7    1.4   -0.5
H     0.6    1.0    0.3
H     0.6   -0.7    0.6
H     0.7   -0.1   -1.1
H     3.0   -0.0    1.0
H     4.3   -1.2   -0.7
H     2.2   -0.8   -2.8
H     2.3   -2.2   -1.9
H     1.8    1.3   -2.4
H     3.4    1.7   -3.0
H     2.6    2.7   -1.7
H     5.1    0.8    0.3
H     4.5    2.4   -0.0
H     5.4    1.6   -1.2
