          17
 frame:         3651
C     0.9   -0.0    0.0
C     2.4   -0.0    0.0
C     3.6   -0.0   -0.0
C     5.1    0.0   -0.0
C     5.7    1.4    0.0
C     5.4    2.2   -1.2
O     6.0    3.5   -1.2
H     0.5    1.0    0.0
H     0.6   -0.5    0.9
H     0.6   -0.5   -0.9
H     5.5   -0.5   -0.9
H     5.5   -0.6    0.9
H     6.8    1.3    0.1
H     5.3    2.0    0.9
H     4.3    2.3   -1.4
H     5.8    1.7   -2.1
H     5.5    4.0   -0.5
