          16
 frame:         5006
C     0.7    0.1    0.1
C     2.2   -0.0    0.2
C     3.1    0.9   -0.2
C     4.6    0.8    0.0
C     5.3    0.7   -1.3
N     6.2    1.6   -1.6
O     6.7    1.3   -2.9
H     0.3   -0.8   -0.5
H     0.5    1.0   -0.5
H     0.2    0.1    1.0
H     2.5   -0.9    0.8
H     2.8    1.8   -0.7
H     4.8   -0.1    0.6
H     5.0    1.6    0.6
H     5.1   -0.2   -2.0
H     7.3    2.0   -3.0
