          15
 frame:         1025
C     0.9   -0.5   -0.1
C     2.4   -0.3   -0.3
C     3.0   -1.0   -1.5
O     2.7    1.1   -0.4
N     2.5    1.8    0.8
C     2.7    3.0    0.7
H     0.5    0.1    0.7
H     0.6   -1.5    0.0
H     0.3   -0.1   -1.1
H     2.9   -0.6    0.7
H     2.5   -0.6   -2.4
H     2.8   -2.1   -1.4
H     4.0   -0.8   -1.5
H     2.6    3.6    1.6
H     3.0    3.5   -0.3
