          15
 frame:         6149
N     1.2   -0.0    0.6
C     2.3    0.1    0.1
C     3.1   -1.2   -0.1
O     4.1   -1.2   -1.2
C     4.9   -0.1   -1.1
C     4.2    1.2   -1.2
N     3.0    1.2   -0.3
H     0.8    0.9    0.7
H     2.4   -2.0   -0.3
H     3.6   -1.4    0.8
H     5.5   -0.1   -0.1
H     5.7   -0.2   -1.9
H     4.8    2.0   -1.0
H     3.8    1.3   -2.3
H     2.5    2.1   -0.3
