          19
 frame:         1177
C     0.7    1.1   -0.4
C    -0.5    0.2   -0.0
C     0.9   -0.4   -0.1
C     1.6   -0.9    1.1
C     1.5   -0.2    2.5
C     1.5   -1.6    3.2
C     1.1   -2.2    1.8
H     0.8    1.4   -1.4
H     1.1    1.8    0.4
H    -1.2    0.0   -0.8
H    -0.9    0.4    1.0
H     1.0   -1.0   -1.0
H     2.7   -1.0    0.9
H     0.5    0.3    2.6
H     2.2    0.5    2.8
H     2.5   -1.9    3.5
H     0.8   -1.8    4.0
H     1.6   -3.2    1.5
H     0.0   -2.3    1.7
