          15
 frame:         1630
C     1.1    0.2    0.5
C     2.5   -0.1   -0.0
C     3.4    0.9   -0.6
N     3.6    0.4    0.8
N     4.7   -0.6    0.7
C     4.3   -1.6    0.2
C     2.9   -1.6   -0.3
H     1.0    1.2    0.9
H     0.8   -0.5    1.3
H     0.4    0.1   -0.3
H     3.0    2.0   -0.6
H     4.1    0.7   -1.3
H     5.0   -2.5    0.1
H     2.8   -1.8   -1.4
H     2.2   -2.3    0.2
