          17
 frame:          353
C     0.9    0.0   -0.3
C     2.4    0.0    0.1
C     2.7    0.0    1.5
C     3.3   -0.7   -0.9
C     3.3    0.8   -0.9
N     4.5    1.5   -0.6
H     0.7    0.1   -1.3
H     0.4    0.9    0.2
H     0.4   -0.9    0.1
H     3.8    0.1    1.7
H     2.3   -0.9    2.0
H     2.2    0.9    2.0
H     2.8   -1.3   -1.7
H     4.1   -1.2   -0.5
H     2.8    1.2   -1.8
H     5.1    0.9    0.0
H     4.2    2.4   -0.1
