          14
 frame:         5040
C     1.3   -0.6   -0.2
C     2.6   -0.3   -0.1
C     3.1    1.1   -0.1
C     4.4    1.4    0.0
N     5.0    2.7   -0.0
C     6.3    3.0    0.1
O     6.7    4.1    0.0
H     1.0   -1.7   -0.1
H     0.6    0.1   -0.4
H     3.4   -1.1    0.1
H     2.4    1.9   -0.3
H     5.2    0.6    0.2
H     4.3    3.5   -0.2
H     6.9    2.1    0.3
