          22
 frame:         2490
C     1.8    0.7    0.0
C     3.0    1.5    0.6
N     4.2    1.1   -0.2
C     5.5    1.8    0.1
C     5.9    1.5    1.6
C     6.5    1.3   -0.8
C     5.4    3.4   -0.0
H     0.9    0.9    0.6
H     2.0   -0.4    0.1
H     1.6    0.9   -1.0
H     3.2    1.2    1.6
H     2.8    2.5    0.5
H     4.0    1.2   -1.2
H     5.2    1.9    2.3
H     6.9    1.9    1.8
H     5.9    0.4    1.7
H     6.3    1.5   -1.9
H     6.6    0.2   -0.7
H     7.5    1.7   -0.6
H     5.1    3.6   -1.0
H     6.3    3.8    0.2
H     4.6    3.8    0.7
