          18
 frame:         5074
C     2.3   -0.6    1.5
C     2.6   -0.1    0.1
C     2.7    1.4   -0.0
C     1.6    2.3    0.3
N     3.9    1.8   -0.4
O     4.0    3.2   -0.5
C     5.3    3.6   -0.9
H     2.2   -1.6    1.5
H     1.4   -0.1    2.0
H     3.2   -0.3    2.2
H     1.7   -0.4   -0.6
H     3.5   -0.6   -0.3
H     0.7    1.8    0.5
H     1.4    3.0   -0.6
H     1.8    3.0    1.2
H     5.2    4.7   -0.9
H     5.5    3.2   -1.9
H     6.0    3.3   -0.2
