          16
 frame:         5026
C     1.9   -0.5   -1.3
C     2.7   -0.1   -0.1
C     3.0    1.3   -0.0
C     4.3    1.8   -0.0
C     4.6    3.2   -0.0
N     5.8    3.6    0.0
O     5.9    5.0   -0.0
H     1.6   -1.6   -1.2
H     2.5   -0.4   -2.2
H     0.9    0.1   -1.4
H     3.6   -0.8    0.0
H     2.1   -0.4    0.8
H     2.2    2.0   -0.1
H     5.2    1.1    0.0
H     3.8    3.9   -0.0
H     6.9    5.2    0.0
