          19
 frame:         3611
C     0.8    0.6    0.7
C     2.3    0.8    0.8
C     3.0    1.2   -0.2
C     4.5    1.4   -0.1
C     5.0    2.8    0.1
C     4.7    3.7   -1.1
O     4.4    3.4    1.3
H     0.5   -0.4    0.8
H     0.4    1.0   -0.2
H     0.3    1.2    1.5
H     2.7    0.4    1.7
H     2.5    1.6   -1.1
H     5.0    1.0   -1.1
H     4.9    0.8    0.7
H     6.1    2.8    0.2
H     3.6    3.8   -1.3
H     5.1    3.4   -2.1
H     5.0    4.8   -0.9
H     3.5    3.1    1.3
