          18
 frame:         2574
C     1.1    0.0    0.1
N     2.6   -0.0   -0.1
C     3.1    1.0   -1.1
C     2.8    0.1   -2.2
C     3.1   -1.0   -1.1
C     4.7   -0.8   -0.9
C     4.7    0.8   -0.8
H     0.8    0.9    0.7
H     0.8   -0.9    0.6
H     0.6    0.0   -0.9
H     2.8    2.0   -1.0
H     3.5    0.1   -3.1
H     1.8    0.1   -2.5
H     2.7   -2.0   -1.1
H     5.0   -1.2    0.1
H     5.3   -1.2   -1.7
H     5.3    1.2   -1.6
H     5.0    1.2    0.1
