          16
 frame:          628
N     1.5   -0.4   -1.0
C     2.6   -0.2    0.0
C     3.0    1.3    0.1
C     4.2    1.8   -0.1
C     4.6    3.2   -0.0
N     5.6    3.4    0.9
H     1.2   -1.4   -1.0
H     1.9   -0.2   -1.9
H     3.5   -0.8   -0.2
H     2.2   -0.5    1.0
H     2.1    1.9    0.3
H     5.0    1.1   -0.3
H     3.6    3.8    0.2
H     5.0    3.5   -1.0
H     5.3    3.2    1.9
H     5.9    4.4    0.9
