          16
 frame:         5272
C     0.7   -0.1   -0.3
C     2.2    0.2   -0.3
C     2.9   -0.1   -1.7
O     2.4    0.6   -2.8
C     2.4    1.7    0.1
N     2.6    2.6   -0.9
O     2.4    2.0    1.3
H     0.3    0.1    0.6
H     0.6   -1.2   -0.6
H     0.2    0.5   -1.1
H     2.7   -0.3    0.4
H     2.9   -1.2   -1.8
H     4.0    0.2   -1.6
H     1.5    0.2   -3.0
H     2.5    2.4   -1.9
H     2.6    3.6   -0.6
