          17
 frame:         4118
C     1.7   -0.3   -1.3
O     2.1    0.3   -0.0
C     3.0    1.3   -0.1
C     2.4    2.6   -0.7
C     2.8    3.7    0.4
O     2.9    3.0    1.6
C     3.5    1.7    1.3
H     1.1   -1.1   -1.1
H     2.6   -0.7   -1.8
H     1.2    0.5   -1.9
H     3.9    1.0   -0.8
H     1.3    2.5   -0.8
H     2.8    2.9   -1.7
H     3.8    4.2    0.2
H     2.0    4.5    0.5
H     4.6    1.9    1.2
H     3.3    1.0    2.0
