          16
 frame:         6023
C     7.1    2.1    0.0
O     6.2    2.9   -0.7
N     4.9    2.8   -0.1
C     4.1    3.5   -0.7
C     2.7    3.6   -0.2
C     2.3    5.0    0.2
C     1.3    5.8   -0.3
H     8.1    2.2   -0.5
H     6.8    1.0    0.0
H     7.2    2.5    1.0
H     4.3    4.1   -1.6
H     2.6    2.9    0.6
H     2.0    3.3   -1.0
H     2.9    5.4    1.0
H     0.7    5.4   -1.2
H     1.1    6.8    0.0
