          21
 frame:         2315
C     1.0    0.5   -0.9
C     2.5    0.4   -0.6
C     3.2    1.7   -0.5
C     4.7    1.6   -0.2
N     5.5    0.9   -1.2
C     5.3    3.0   -0.1
N     5.4    3.7   -1.4
H     0.5   -0.5   -0.9
H     0.8    1.0   -1.8
H     0.5    1.1   -0.1
H     2.9   -0.2   -1.4
H     2.6   -0.2    0.3
H     2.7    2.3    0.3
H     3.1    2.3   -1.4
H     4.8    1.1    0.7
H     5.2    1.2   -2.1
H     5.2   -0.1   -1.2
H     6.3    2.9    0.4
H     4.7    3.6    0.6
H     6.3    3.4   -1.9
H     5.6    4.7   -1.2
