          13
 frame:         5368
C     2.5   -1.1    0.1
C     2.2    0.2    0.1
N     3.0    1.3   -0.3
C     2.4    2.6   -0.2
N     2.9    3.7   -0.4
C     4.3    1.1   -0.7
O     5.0    2.0   -1.1
H     1.7   -1.8    0.4
H     3.4   -1.5   -0.2
H     1.2    0.5    0.4
H     1.3    2.5    0.2
H     3.8    3.6   -0.8
H     4.6    0.1   -0.7
