          17
 frame:         5164
C     1.0    0.0   -0.0
C     2.5   -0.0    0.0
C     3.0   -0.8    1.3
N     3.1   -0.7   -1.1
C     3.0    1.4   -0.0
N     3.5    2.0    1.0
O     3.9    3.3    0.7
H     0.6    0.6   -0.9
H     0.6    0.5    0.9
H     0.6   -1.0   -0.1
H     2.7   -0.2    2.2
H     4.1   -0.8    1.3
H     2.6   -1.8    1.3
H     2.7   -0.3   -2.0
H     2.9   -1.7   -1.1
H     3.0    1.9   -1.0
H     4.2    3.6    1.6
