          19
 frame:         4140
C     4.1   -0.9    0.2
O     3.4    0.1    1.1
C     3.4    1.4    0.6
C     2.4    2.2    1.4
C     4.8    2.0    0.6
C     5.7    2.0   -0.6
C     5.0    3.3   -0.2
H     3.9   -1.9    0.6
H     5.2   -0.7    0.2
H     3.7   -0.8   -0.8
H     3.0    1.4   -0.5
H     2.7    2.1    2.5
H     1.4    1.7    1.4
H     2.3    3.2    1.1
H     5.2    2.0    1.6
H     5.4    1.4   -1.5
H     6.8    1.9   -0.4
H     5.6    4.1    0.2
H     4.2    3.6   -0.9
