          15
 frame:         2420
C     1.0   -0.1    0.1
C     2.5    0.0   -0.1
C     3.0   -0.6   -1.3
N     2.3   -1.2   -2.2
N     2.8   -1.8   -3.2
C     3.0    1.4    0.1
C     3.4    2.5    0.2
H     0.7    0.4    1.0
H     0.7   -1.1    0.0
H     0.5    0.5   -0.7
H     3.0   -0.5    0.8
H     4.1   -0.5   -1.5
H     3.7   -1.4   -3.6
H     2.2   -1.9   -4.0
H     3.8    3.5    0.2
