          15
 frame:         3472
C     2.4   -0.6   -1.4
C     2.4    0.0   -0.0
C     3.0    1.4    0.0
C     2.3    2.6    0.2
O     3.2    3.7    0.2
C     4.4    3.1   -0.1
C     4.3    1.8   -0.2
H     2.0   -1.6   -1.4
H     3.5   -0.7   -1.7
H     1.9   -0.0   -2.1
H     2.9   -0.6    0.7
H     1.3    0.1    0.3
H     1.3    2.9    0.4
H     5.2    3.8   -0.1
H     5.2    1.1   -0.3
