          17
 frame:         1266
C     1.0    0.0    0.1
C     2.5   -0.0    0.0
C     3.3   -1.1   -0.1
C     4.7   -0.8   -0.2
C     4.8    0.8   -0.1
C     3.3    1.2    0.1
C     2.9    2.5    0.2
H     0.6   -1.0    0.1
H     0.6    0.6   -0.7
H     0.7    0.5    1.1
H     2.9   -2.1   -0.2
H     5.3   -1.3    0.6
H     5.2   -1.2   -1.1
H     5.2    1.2   -1.0
H     5.4    1.1    0.7
H     3.6    3.3    0.2
H     1.8    2.7    0.3
