          18
 frame:         2270
C     1.4   -0.2    1.0
C     2.5    0.0    0.0
C     2.1   -0.5   -1.4
C     1.0    0.3   -2.1
N     0.7   -0.2   -3.4
C     3.0    1.4    0.0
C     3.4    2.5    0.0
H     1.7    0.1    2.0
H     1.0   -1.2    1.0
H     0.5    0.5    0.8
H     3.4   -0.6    0.3
H     1.9   -1.5   -1.4
H     3.0   -0.4   -2.1
H     1.2    1.4   -2.1
H     0.1    0.1   -1.5
H     1.5   -0.0   -4.0
H    -0.1    0.2   -3.8
H     3.8    3.5    0.0
