          15
 frame:         6094
N     1.0    0.1    0.1
C     2.4    0.1    0.0
C     3.1    1.2    0.8
C     4.4    0.6    1.3
N     4.2   -0.8    1.3
C     3.0   -1.2    0.6
O     2.6   -2.3    0.5
H     0.7   -0.9   -0.1
H     0.6    0.6   -0.7
H     2.8    0.1   -1.0
H     2.4    1.4    1.7
H     3.2    2.2    0.3
H     5.2    0.9    0.6
H     4.8    1.0    2.3
H     4.8   -1.5    1.7
