          15
 frame:         5842
C     1.1    1.9   -1.3
N     1.6    1.9    0.1
N     2.9    2.4    0.1
C     3.2    3.8    0.2
C     2.2    4.7    0.3
C     3.9    1.5    0.2
O     3.7    0.2    0.1
H     0.1    1.4   -1.3
H     1.7    1.2   -2.0
H     1.0    2.9   -1.7
H     1.6    1.0    0.4
H     4.2    4.0    0.2
H     1.2    4.5    0.4
H     2.5    5.8    0.4
H     4.9    1.9    0.3
