          15
 frame:         3585
C     1.0   -0.1    0.0
C     2.5   -0.0    0.0
C     3.0    1.3    0.0
C     3.4    2.5    0.0
C     4.0    3.8    0.0
C     3.9    4.7   -1.2
O     3.0    4.9   -0.1
H     0.6   -1.1   -0.0
H     0.6    0.4   -0.9
H     0.6    0.4    0.9
H     2.9   -0.6   -0.9
H     2.9   -0.6    0.9
H     4.7    4.0    0.8
H     3.5    4.3   -2.1
H     4.7    5.5   -1.3
