          17
 frame:         5428
C     1.2   -0.2   -0.5
C     2.5   -0.1    0.1
N     3.0    1.3   -0.1
N     4.3    1.5    0.3
C     4.7    2.7    0.7
C     6.1    2.9    1.1
O     6.9    1.7    1.0
H     0.8   -1.3   -0.4
H     1.2   -0.0   -1.6
H     0.4    0.4   -0.1
H     3.3   -0.7   -0.3
H     2.5   -0.3    1.2
H     2.4    2.0    0.2
H     4.0    3.5    0.8
H     6.2    3.3    2.1
H     6.6    3.6    0.4
H     6.2    1.0    0.7
