          12
 frame:         6102
N     0.9    0.0   -0.2
C     2.3   -0.0   -0.1
C     3.1    1.1    0.1
O     2.8    2.4    0.3
O     4.4    0.7    0.2
C     4.4   -0.7    0.1
C     3.2   -1.1   -0.1
H     0.5    0.9    0.0
H     0.4   -0.7    0.3
H     3.2    2.9   -0.4
H     5.4   -1.1    0.1
H     2.9   -2.2   -0.2
