          16
 frame:         2119
C     1.0    0.0    0.1
C     2.5   -0.1    0.1
C     3.1   -1.3    0.1
C     3.2    1.2    0.0
C     3.8    2.2    0.0
C     4.5    3.5   -0.0
N     3.5    4.7   -0.2
H     0.7    0.6    0.9
H     0.5   -1.0    0.1
H     0.6    0.6   -0.8
H     2.6   -2.2    0.1
H     4.2   -1.3    0.1
H     5.3    3.5   -0.8
H     5.0    3.7    0.9
H     3.0    4.5   -1.1
H     4.1    5.5   -0.3
