          21
 frame:         1506
C     3.2    1.0   -2.5
C     3.2    0.1   -1.2
C     3.8    0.9    0.0
C     5.2    1.3   -0.1
C     6.2    0.2   -0.2
C     5.5    2.6   -0.1
C     6.9    3.3   -0.2
H     2.8    0.5   -3.3
H     4.2    1.4   -2.7
H     2.5    1.9   -2.3
H     3.8   -0.8   -1.4
H     2.2   -0.2   -0.9
H     3.7    0.2    0.9
H     3.2    1.8    0.2
H     6.1   -0.3   -1.2
H     6.2   -0.5    0.6
H     7.3    0.6   -0.3
H     4.7    3.4    0.0
H     7.7    2.6   -0.3
H     7.1    3.9    0.7
H     6.9    4.0   -1.1
