          19
 frame:         2794
C     2.2   -0.5   -1.4
N     3.5   -0.3   -0.6
N     4.0    1.0   -0.8
C     4.7    1.4    0.2
C     5.4    2.8    0.1
C     4.9    3.7    1.2
C     6.9    2.6    0.0
H     2.0   -1.6   -1.3
H     2.4   -0.3   -2.4
H     1.4    0.0   -1.0
H     3.5   -0.7    0.3
H     4.9    0.9    1.1
H     5.0    3.2   -0.9
H     5.2    3.3    2.2
H     3.8    3.9    1.2
H     5.4    4.7    1.1
H     7.3    2.2    1.0
H     7.4    3.6   -0.1
H     7.2    2.0   -0.8
