          12
 frame:         4975
C     2.9   -1.1    0.4
C     2.3    0.1    0.1
C     3.0    1.3    0.1
N     2.5    2.5   -0.2
C     3.5    3.4   -0.1
C     4.7    2.7    0.1
O     4.4    1.4    0.2
H     2.3   -2.0    0.4
H     4.0   -1.2    0.5
H     1.2    0.1   -0.0
H     3.4    4.5   -0.3
H     5.7    3.0    0.2
