          16
 frame:         4578
C    -1.7    0.8    0.5
C    -1.1   -0.2   -0.4
N    -0.4   -1.4    0.1
C     1.0   -1.4   -0.3
C     1.7    0.1   -0.2
O     0.8    1.0    0.5
C    -0.4    1.1   -0.2
H    -2.6    1.3    0.2
H    -1.6    0.7    1.6
H    -1.7   -0.4   -1.3
H    -0.4   -1.3    1.2
H     1.6   -2.1    0.3
H     1.0   -1.7   -1.3
H     2.6    0.0    0.4
H     1.9    0.5   -1.2
H    -0.4    1.8   -1.1
