          14
 frame:         2117
C     1.1   -0.1    0.5
C     2.5   -0.1   -0.1
C     3.1   -1.1   -0.7
C     3.2    1.2    0.1
C     2.7    2.3    0.7
C     4.5    1.3   -0.5
N     5.6    1.3   -0.9
H     0.4    0.6   -0.0
H     1.1    0.1    1.5
H     0.7   -1.1    0.3
H     2.5   -2.1   -0.8
H     4.1   -1.1   -1.1
H     1.7    2.3    1.1
H     3.3    3.2    0.8
