          18
 frame:         5603
C     1.2   -0.1   -0.2
N     2.6   -0.1    0.2
C     3.1    1.1    0.9
C     4.4    0.6    1.5
C     4.4   -0.9    1.3
O     5.2   -1.3    0.2
C     3.0   -1.2    1.1
H     0.9   -1.0   -0.7
H     1.0    0.8   -0.9
H     0.5    0.1    0.7
H     2.4    1.4    1.6
H     3.2    1.9    0.1
H     5.3    1.1    1.0
H     4.5    0.9    2.5
H     4.8   -1.4    2.2
H     4.8   -1.0   -0.6
H     2.8   -2.2    0.6
H     2.4   -1.2    2.0
