          14
 frame:          743
C     0.9   -0.1    0.1
C     2.5   -0.1   -0.0
C     3.2   -1.2    0.2
C     3.1    1.2   -0.3
C     4.6    1.3   -0.5
O     2.4    2.2   -0.6
H     0.6    0.7    0.8
H     0.6   -1.1    0.3
H     0.5    0.2   -0.9
H     2.7   -2.1    0.5
H     4.3   -1.2    0.2
H     5.0    0.6   -1.2
H     5.1    1.1    0.5
H     4.9    2.4   -0.7
