          14
 frame:          716
C     1.1    0.1    0.9
C     1.9    0.4   -0.1
C     3.0    1.3   -0.0
C     2.9    2.8   -0.6
C     3.4    3.2    0.8
O     3.4    1.8    1.3
H     0.2   -0.6    0.8
H     1.4    0.4    1.9
H     1.6    0.0   -1.1
H     3.9    0.8   -0.5
H     1.9    3.1   -0.7
H     3.5    3.0   -1.4
H     4.5    3.5    0.8
H     2.8    3.8    1.4
