          14
 frame:         5407
C     0.9   -0.4    0.0
C     2.3    0.2    0.1
N     2.3    1.7    0.1
C     2.3    2.4   -1.1
O     2.4    1.8   -2.2
C     2.2    2.4    1.3
O     2.1    1.9    2.4
H     1.0   -1.5    0.0
H     0.4   -0.1   -0.9
H     0.3   -0.1    0.9
H     2.9   -0.1   -0.8
H     2.8   -0.1    1.0
H     2.2    3.5   -1.0
H     2.1    3.5    1.1
