          14
 frame:         4763
C     0.9    0.0    0.1
C     2.4   -0.0    0.0
C     3.2    1.0    0.9
O     4.0   -0.1    1.5
C     3.1   -1.1    0.9
C     3.9   -2.1    0.1
N     4.5   -2.9   -0.5
H     0.5   -0.8   -0.5
H     0.5    0.9   -0.4
H     0.5    0.0    1.1
H     2.8   -0.0   -1.0
H     2.6    1.5    1.6
H     3.9    1.7    0.4
H     2.5   -1.6    1.6
