          15
 frame:         4408
O     2.4   -0.4    1.4
C     2.5   -0.0    0.0
C     3.0    1.4   -0.1
C     4.2    1.8   -0.5
C     4.3    3.3   -0.4
C     2.9    3.6    0.0
O     2.2    2.4    0.4
H     1.8   -1.1    1.5
H     1.5   -0.0   -0.4
H     3.1   -0.7   -0.5
H     5.0    1.1   -0.9
H     5.1    3.6    0.4
H     4.7    3.8   -1.3
H     2.3    4.1   -0.8
H     2.8    4.3    0.9
