          13
 frame:         7083
C     3.1   -1.2    0.4
N     2.5   -0.0   -0.2
C     3.2    1.2   -0.1
N     2.4    2.3   -0.3
S     3.5    3.6   -0.2
C     4.9    2.7    0.1
C     4.6    1.4    0.1
H     2.5   -2.1    0.2
H     3.3   -1.1    1.5
H     4.1   -1.4   -0.1
H     1.5    0.0   -0.2
H     5.8    3.2    0.2
H     5.3    0.6    0.3
