          16
 frame:          583
C     1.5   -0.5   -1.0
N     3.0   -0.3   -0.9
N     3.4    1.0   -0.6
C     4.5    1.2   -0.1
C     5.5    0.1    0.2
C     5.0    2.6    0.1
H     1.3   -1.5   -1.3
H     1.1    0.2   -1.7
H     1.0   -0.3   -0.0
H     3.4   -1.0   -0.3
H     5.1   -0.6    1.0
H     6.5    0.5    0.5
H     5.7   -0.6   -0.7
H     4.2    3.3   -0.1
H     5.9    2.9   -0.5
H     5.2    2.8    1.2
