          13
 frame:         2729
C     1.0   -0.0   -0.0
N     2.5   -0.0    0.1
C     3.0    1.4    0.0
C     4.5    1.4    0.0
C     5.7    1.4   -0.0
C     7.0    1.4   -0.0
N     8.2    1.4   -0.1
H     0.7   -1.1   -0.0
H     0.6    0.5   -0.9
H     0.6    0.5    0.9
H     2.9   -0.6   -0.7
H     2.6    1.9    0.9
H     2.6    1.9   -0.9
