          17
 frame:         4906
C     1.0    0.0   -0.1
C     2.5    0.1    0.1
O     2.9    0.3    1.4
C     3.4   -0.7   -0.9
N     2.9   -1.6   -1.9
C     3.3    0.8   -1.0
N     4.3    1.7   -0.6
H     0.6   -0.1   -1.1
H     0.5    0.9    0.3
H     0.6   -0.8    0.5
H     2.9   -0.6    1.8
H     4.3   -1.1   -0.4
H     2.5   -1.0   -2.7
H     2.2   -2.3   -1.6
H     2.7    1.1   -1.9
H     5.2    1.5   -1.1
H     4.5    1.6    0.4
