          17
 frame:         4428
O     2.2   -0.3   -1.4
C     2.3    0.1   -0.0
C     3.1    1.4   -0.0
O     4.4    1.2   -0.7
C     2.4    2.7   -0.5
C     3.0    3.5    0.7
C     3.4    2.1    1.4
H     1.9   -1.2   -1.4
H     2.9   -0.7    0.6
H     1.3    0.3    0.5
H     4.2    0.7   -1.5
H     1.3    2.6   -0.5
H     2.7    3.0   -1.5
H     3.9    4.0    0.4
H     2.4    4.1    1.3
H     4.4    1.9    1.8
H     2.6    1.8    2.1
