          15
 frame:         5420
C     1.3    2.9    1.4
C     2.5    2.1    1.0
N     3.6    2.8    0.7
N     4.7    2.1    0.3
C     5.9    2.6   -0.1
C     5.9    4.1   -0.1
O     6.8    1.9   -0.3
H     1.0    2.6    2.4
H     0.5    2.6    0.8
H     1.4    4.0    1.3
H     2.5    1.1    1.1
H     4.7    1.0    0.4
H     5.2    4.5   -0.8
H     6.9    4.4   -0.5
H     5.7    4.6    0.8
