          16
 frame:         6719
O     1.6   -0.9   -0.8
C     1.6    0.0    0.3
C     2.7    1.1    0.1
C     4.1    0.5    0.1
C     5.2    1.6   -0.2
C     5.2    2.6    0.9
N     5.3    3.4    1.8
H     1.0   -1.5   -0.7
H     1.8   -0.5    1.3
H     0.6    0.5    0.4
H     2.6    1.9    0.9
H     2.5    1.6   -0.8
H     4.2   -0.2   -0.7
H     4.3   -0.0    1.0
H     5.0    2.1   -1.1
H     6.2    1.1   -0.2
