          15
 frame:         4361
O     1.0   -0.4    0.1
C     2.4   -0.2    0.0
C     2.9    1.0    0.9
O     3.4    0.1    1.9
C     3.2   -1.0    1.0
C     2.8   -0.2   -1.4
C     2.0   -0.4   -2.5
H     0.7   -0.3    1.0
H     2.1    1.7    1.3
H     3.7    1.6    0.4
H     4.2   -1.4    0.6
H     2.6   -1.8    1.6
H     3.9   -0.1   -1.6
H     0.9   -0.6   -2.3
H     2.4   -0.5   -3.5
