          16
 frame:         2100
C     0.8   -0.2    0.2
C     2.3   -0.1    0.2
C     3.0    1.1   -0.0
C     2.4    2.4   -0.3
C     4.5    1.0    0.0
C     5.2    1.4   -1.2
N     5.7    1.7   -2.2
H     0.5   -1.0   -0.6
H     0.3    0.7    0.0
H     0.5   -0.7    1.2
H     2.9   -1.0    0.4
H     1.3    2.4   -0.4
H     2.8    2.8   -1.3
H     2.7    3.1    0.4
H     4.9    0.0    0.3
H     4.9    1.7    0.8
