          18
 frame:         1540
C     1.5    1.6   -0.4
C     0.1    1.0   -0.1
C     1.3    0.1   -0.3
N     1.8   -0.7    0.8
C     3.1   -1.2    0.5
C     4.3   -0.4    0.9
C     3.9   -1.6    1.7
H     1.7    2.0   -1.4
H     2.1    2.0    0.4
H    -0.6    1.1   -0.8
H    -0.2    1.1    0.9
H     1.2   -0.5   -1.3
H     1.2   -1.4    1.1
H     3.2   -1.9   -0.4
H     4.2    0.5    1.4
H     5.2   -0.5    0.3
H     4.5   -2.5    1.7
H     3.5   -1.5    2.7
