          17
 frame:         3306
C     0.8   -0.1   -0.5
C     2.2   -0.1    0.0
C     3.2   -0.8   -0.8
O     3.1    0.7   -0.8
C     2.4   -0.1    1.5
C     1.5    0.7    2.4
C     1.5   -0.8    2.5
H     0.8   -0.1   -1.6
H     0.3    0.9   -0.2
H     0.2   -0.9   -0.1
H     3.0   -1.2   -1.8
H     4.1   -1.2   -0.3
H     3.5   -0.0    1.7
H     0.6    1.2    2.0
H     2.0    1.3    3.2
H     2.0   -1.3    3.3
H     0.6   -1.3    2.1
