          17
 frame:         5772
C     0.9   -0.1    0.6
N     2.0   -0.2   -0.4
C     2.7   -1.5   -0.5
C     2.3   -2.2   -1.7
O     2.5   -1.5   -3.0
N     2.7    1.0   -0.5
C     3.8    1.1   -1.2
H     0.5    0.9    0.5
H     1.3   -0.2    1.6
H     0.2   -0.9    0.4
H     2.5   -2.1    0.4
H     3.8   -1.3   -0.5
H     1.2   -2.5   -1.7
H     2.9   -3.2   -1.8
H     2.0   -0.7   -2.9
H     4.2    2.1   -1.2
H     4.3    0.3   -1.6
