          14
 frame:          191
C     0.9   -0.0   -0.0
C     2.4    0.0   -0.0
O     2.9   -0.6   -1.3
C     3.0    1.4    0.1
N     4.4    1.4   -0.1
H     0.5    0.4    0.9
H     0.5   -1.1   -0.1
H     0.5    0.6   -0.8
H     2.8   -0.6    0.8
H     3.8   -0.2   -1.4
H     2.7    1.9    1.1
H     2.5    2.1   -0.7
H     4.9    1.1    0.7
H     4.8    2.3   -0.4
