          18
 frame:         1733
C     0.8   -0.1    0.3
C     2.3   -0.0    0.0
C     3.1    1.1    0.7
C     4.1    0.0    1.0
N     3.1   -1.0    0.8
C     5.3   -0.0    0.1
C     5.8    0.9   -0.7
H     0.4   -1.1   -0.1
H     0.2    0.7   -0.1
H     0.6   -0.1    1.4
H     2.4   -0.0   -1.1
H     2.6    1.5    1.6
H     3.4    2.0    0.1
H     4.5   -0.0    2.1
H     3.5   -1.8    0.1
H     5.9   -1.0    0.2
H     5.3    1.8   -0.9
H     6.7    0.7   -1.4
