          17
 frame:         3576
C     1.8   -0.0    0.5
C     2.6    0.1   -0.8
C     1.8   -0.2   -2.0
C     2.0   -1.2   -2.9
C     3.2    1.4   -1.0
C     4.5    1.8   -0.4
O     4.3    1.6   -1.8
H     2.4    0.2    1.3
H     1.4   -1.1    0.6
H     1.0    0.7    0.5
H     3.5   -0.7   -0.8
H     0.9    0.4   -2.2
H     2.9   -1.9   -2.8
H     1.3   -1.4   -3.8
H     2.5    2.3   -1.0
H     5.1    1.0    0.1
H     4.8    2.8   -0.1
