          19
 frame:         3779
C     1.4   -0.5    1.6
C     1.6   -0.2    0.1
C     3.0    0.3   -0.1
C     4.1   -0.7   -0.0
O     3.9   -1.9   -0.1
C     5.5   -0.2    0.1
C     6.6   -1.2    0.0
H     0.3   -0.9    1.8
H     1.5    0.4    2.2
H     2.0   -1.3    2.0
H     0.9    0.6   -0.2
H     1.4   -1.1   -0.5
H     3.3    1.2    0.5
H     3.1    0.7   -1.2
H     5.6    0.3    1.1
H     5.7    0.6   -0.6
H     6.5   -2.0    0.7
H     7.6   -0.8    0.2
H     6.6   -1.7   -1.0
