          16
 frame:         6463
O     1.2    0.1    0.3
C     2.6    0.1    0.1
C     3.1   -0.9   -1.0
C     4.6   -0.8   -0.9
C     4.7    0.8   -0.8
C     3.1    1.1   -0.9
N     2.6    0.1   -1.9
H     0.8    0.1   -0.6
H     3.0   -0.0    1.1
H     2.6   -1.9   -1.1
H     5.0   -1.3   -0.0
H     5.1   -1.2   -1.8
H     5.2    1.2   -1.7
H     5.1    1.2    0.1
H     2.8    2.1   -0.9
H     3.1    0.1   -2.8
