          13
 frame:         3821
C     1.0    0.0   -0.0
C     2.4   -0.0   -0.0
C     3.6   -0.1    0.0
C     5.1   -0.0   -0.0
O     5.7   -0.7   -1.2
C     5.6    1.4    0.0
O     6.1    2.0    1.0
H     0.6    1.1    0.0
H     0.6   -0.5    0.9
H     0.6   -0.5   -0.9
H     5.5   -0.5    0.9
H     5.0   -0.6   -1.9
H     5.4    2.0   -1.0
