          20
 frame:         5338
C     0.9   -0.1   -0.1
C     2.4    0.1    0.0
N     3.1   -0.7   -1.0
C     3.0    1.5    0.1
C     2.5    2.3   -1.2
C     2.5    2.3    1.3
O     4.4    1.4    0.1
H     0.4    0.5    0.7
H     0.6   -1.1   -0.0
H     0.5    0.3   -1.0
H     2.7   -0.4    1.0
H     2.7   -0.6   -1.9
H     3.1   -1.7   -0.8
H     2.9    1.8   -2.1
H     3.0    3.3   -1.2
H     1.5    2.5   -1.3
H     2.8    1.7    2.2
H     1.4    2.5    1.3
H     3.0    3.2    1.4
H     4.6    0.6   -0.5
