          17
 frame:         5308
C     1.1    0.2    1.4
C     2.1   -0.0    0.3
C     3.0    1.2    0.0
O     2.5    2.3   -0.1
N     4.3    0.9   -0.1
N     5.2    1.9   -0.6
C     5.9    2.6    0.5
H     0.4   -0.6    1.5
H     0.5    1.1    1.2
H     1.6    0.3    2.4
H     1.5   -0.2   -0.7
H     2.7   -0.9    0.5
H     4.6   -0.0   -0.3
H     4.5    2.6   -1.0
H     6.6    1.8    0.9
H     5.3    2.9    1.3
H     6.5    3.4    0.1
