          19
 frame:         3838
C     1.2   -0.0    1.4
C     2.2    0.0    0.2
C     2.8    1.4   -0.1
O     3.7    1.3   -1.1
C     4.3    2.6   -1.4
C     5.5    3.0   -0.6
C     5.6    2.6   -2.1
H     0.8   -1.0    1.6
H     0.3    0.6    1.1
H     1.7    0.4    2.3
H     1.8   -0.4   -0.7
H     3.1   -0.7    0.5
H     3.3    1.8    0.9
H     2.0    2.1   -0.3
H     3.5    3.3   -1.8
H     5.8    2.4    0.2
H     5.6    4.1   -0.4
H     5.8    3.3   -2.9
H     6.1    1.6   -2.2
