          16
 frame:          839
C     1.0   -0.1   -0.1
C     2.5    0.1    0.1
O     3.2   -0.7   -0.8
C     2.9    1.5    0.2
C     2.4    2.3    1.3
O     4.4    1.6    0.3
H     0.4    0.3    0.7
H     0.7   -1.2   -0.2
H     0.7    0.4   -1.0
H     2.8   -0.4    1.1
H     2.9   -0.5   -1.7
H     2.6    2.0   -0.8
H     2.6    1.9    2.3
H     1.3    2.5    1.2
H     2.8    3.3    1.3
H     4.7    0.8   -0.3
