          17
 frame:         1039
C     1.4    1.9   -1.1
C     2.6    1.3   -0.4
O     3.7    2.2   -0.6
C     4.9    1.8    0.1
C     5.9    2.9   -0.1
N     5.5    4.1    0.6
H     0.5    1.2   -1.0
H     1.5    2.0   -2.2
H     1.1    2.9   -0.7
H     2.9    0.3   -0.8
H     2.4    1.2    0.7
H     5.2    0.8   -0.4
H     4.7    1.7    1.1
H     6.1    3.0   -1.2
H     6.9    2.5    0.3
H     4.7    4.5    0.2
H     6.2    4.8    0.4
