          14
 frame:         6777
O     1.1    0.0   -0.7
C     2.3    0.1   -0.2
N     2.9    1.3    0.0
C     4.3    1.4    0.6
C     4.6    2.9    0.7
C     3.3    3.5    0.1
C     2.4    2.5   -0.2
H     2.9   -0.8    0.1
H     5.0    0.8   -0.0
H     4.3    0.9    1.6
H     5.5    3.2    0.1
H     4.7    3.2    1.7
H     3.1    4.6    0.0
H     1.4    2.6   -0.7
