          17
 frame:         3835
C     0.8   -0.1    0.0
C     2.4   -0.0    0.0
C     3.0    1.4   -0.0
C     4.5    1.4   -0.0
O     5.0    2.7   -0.1
C     5.2    3.4    1.0
O     5.0    3.0    2.1
H     0.5   -1.1    0.1
H     0.4    0.4   -0.9
H     0.4    0.5    0.9
H     2.8   -0.6   -0.8
H     2.7   -0.5    0.9
H     2.6    2.0    0.8
H     2.6    1.9   -0.9
H     4.9    0.8   -0.9
H     4.9    0.9    0.9
H     5.6    4.4    0.8
