          13
 frame:         7056
C     1.0   -0.0    0.0
C     2.5    0.1    0.0
S     3.0    1.8   -0.0
O     2.6    2.4   -1.3
O     2.6    2.4    1.3
C     4.8    1.7   -0.0
C     6.0    1.6   -0.0
H     0.7   -1.1    0.0
H     0.6    0.4   -0.9
H     0.6    0.4    0.9
H     3.0   -0.4   -0.9
H     3.0   -0.4    0.9
H     7.0    1.6   -0.0
