          13
 frame:         6922
C     0.9   -0.0   -0.0
C     2.4    0.0   -0.0
C     3.2    1.2   -0.0
O     2.6    2.5   -0.0
S     4.9    0.9   -0.0
C     4.6   -0.8    0.0
C     3.3   -1.1    0.0
H     0.5    1.0    0.0
H     0.5   -0.5    0.9
H     0.5   -0.5   -0.9
H     3.4    3.1   -0.0
H     5.5   -1.5    0.0
H     2.9   -2.1    0.0
