          18
 frame:         2362
C     0.8    0.3    0.0
C     2.3    0.0   -0.0
C     2.7   -0.8    1.2
N     2.8   -0.8   -1.2
C     3.0    1.4   -0.1
C     4.5    1.4    0.0
C     5.7    1.4    0.1
H     0.5    0.8   -0.9
H     0.5    0.8    0.9
H     0.2   -0.7    0.0
H     2.5   -0.2    2.2
H     3.8   -0.9    1.2
H     2.2   -1.7    1.3
H     2.4   -0.3   -2.0
H     2.3   -1.7   -1.2
H     2.6    2.0    0.8
H     2.7    1.9   -1.0
H     6.8    1.4    0.2
