          18
 frame:         5324
C     0.8   -0.3    0.4
C     2.2   -0.4   -0.3
N     3.2    0.3    0.5
C     4.5    0.2   -0.1
C     5.7    0.9    0.7
O     6.5   -0.3    0.5
C     5.4   -1.0    0.0
H     0.0   -0.8   -0.2
H     0.5    0.8    0.5
H     0.8   -0.8    1.4
H     2.1    0.0   -1.3
H     2.4   -1.5   -0.4
H     3.2   -0.0    1.4
H     4.5    0.6   -1.1
H     5.4    1.0    1.8
H     6.1    1.8    0.3
H     5.7   -1.5   -0.9
H     5.0   -1.8    0.7
