          19
 frame:         3263
C     0.9   -0.0    0.1
C     2.4    0.0    0.0
C     3.2    1.1    0.9
C     4.2    0.0    1.3
O     5.5    0.1    0.5
C     3.2   -1.1    0.8
C     3.7   -2.3    0.1
H     0.5   -0.9   -0.5
H     0.5    0.9   -0.4
H     0.5   -0.0    1.1
H     2.8    0.0   -1.0
H     2.6    1.4    1.8
H     3.6    2.0    0.4
H     4.6   -0.0    2.3
H     5.2    0.2   -0.4
H     2.6   -1.4    1.7
H     4.4   -2.1   -0.8
H     2.9   -2.9   -0.3
H     4.3   -3.0    0.8
