          15
 frame:         4580
C     0.8   -1.2    0.4
C     1.7   -0.1   -0.0
O     1.0    1.1   -0.5
C    -0.1    1.5    0.3
C    -1.3    0.7    0.1
N    -1.5   -0.6   -0.3
N    -0.4   -1.4   -0.5
H     1.3   -2.1    0.5
H     0.4   -1.0    1.5
H     2.3   -0.4   -0.9
H     2.4    0.2    0.8
H     0.2    1.5    1.4
H    -0.3    2.5    0.1
H    -2.3    1.2    0.2
H    -0.7   -2.3   -0.5
