          18
 frame:         5533
C     3.0   -1.1   -0.6
C     2.7    0.0    0.3
O     3.3   -0.1    1.6
C     3.2    1.4   -0.2
N     2.9    2.5    0.8
C     4.7    1.5   -0.5
O     5.0    2.8   -0.9
H     2.6   -0.9   -1.6
H     2.6   -2.1   -0.2
H     4.1   -1.3   -0.7
H     1.6    0.1    0.5
H     3.0   -1.0    2.0
H     2.7    1.6   -1.1
H     3.1    2.2    1.7
H     1.9    2.8    0.7
H     5.0    0.8   -1.3
H     5.3    1.2    0.4
H     4.5    3.4   -0.3
