          14
 frame:         6961
C     0.9    0.1    0.0
C     2.4    0.0   -0.0
N     3.2    0.9    0.9
C     4.3    0.1    1.3
S     3.2   -1.4    0.9
O     2.5   -1.8    2.1
O     3.9   -2.5    0.1
H     0.5   -0.7   -0.7
H     0.6    1.1   -0.3
H     0.5   -0.1    1.0
H     2.9   -0.0   -1.0
H     2.6    1.1    1.7
H     5.1    0.1    0.6
H     4.6    0.2    2.3
