          14
 frame:         6067
N     1.0    0.0   -0.4
C     2.3    0.0    0.1
C     3.3   -0.8   -0.7
C     3.3    0.7   -0.9
C     4.4    1.6   -0.4
O     5.2    1.1    0.6
O     4.6    2.7   -0.8
H     0.5    0.9   -0.1
H     0.5   -0.8    0.1
H     2.6    0.2    1.1
H     2.9   -1.4   -1.6
H     4.1   -1.3   -0.2
H     2.9    1.1   -1.8
H     5.0    0.1    0.8
