          15
 frame:         7033
C     1.2    0.1    0.4
C     2.6   -0.1   -0.1
C     3.1   -1.1   -0.7
S     3.6    1.4    0.0
C     3.9    1.5    1.8
O     4.9    1.1   -0.6
O     2.8    2.6   -0.3
H     0.7    0.9   -0.1
H     1.1    0.2    1.5
H     0.6   -0.9    0.2
H     2.6   -2.0   -0.9
H     4.2   -1.1   -1.1
H     3.0    1.6    2.3
H     4.6    2.4    1.9
H     4.5    0.6    2.1
