          13
 frame:         7050
C     3.0   -1.3    0.2
C     2.6   -0.1   -0.6
O     1.9   -0.1   -1.6
S     3.5    1.5   -0.1
C     2.9    2.6   -1.3
O     2.9    1.8    1.2
O     4.9    1.3   -0.3
H     4.1   -1.4    0.2
H     2.5   -2.2   -0.1
H     2.7   -1.1    1.3
H     3.1    2.3   -2.3
H     3.3    3.6   -1.1
H     1.8    2.7   -1.2
