          18
 frame:         2587
C     1.1    0.1    0.4
N     2.5    0.0    0.0
C     2.9   -1.3   -0.7
C     2.6   -1.0   -2.2
C     3.6   -0.4   -3.0
C     2.6    0.5   -2.4
C     2.9    1.1   -1.0
H     0.9    1.0    0.9
H     0.9   -0.8    1.1
H     0.4   -0.1   -0.5
H     2.3   -2.1   -0.2
H     3.9   -1.5   -0.5
H     1.8   -1.7   -2.7
H     4.7   -0.3   -2.5
H     3.6   -0.5   -4.1
H     1.8    0.9   -3.0
H     3.9    1.3   -0.9
H     2.3    2.0   -0.8
