          18
 frame:         1865
C     1.2   -0.2    0.0
C     2.6   -0.0   -0.2
N     3.2   -0.2   -1.6
C     3.2    1.1   -1.0
C     4.5    1.8   -0.7
C     5.8    1.0   -0.6
C     5.5    1.9   -1.8
H     0.9    0.3    1.0
H     0.9   -1.3    0.1
H     0.6    0.3   -0.8
H     3.3   -0.4    0.5
H     2.4   -0.3   -2.3
H     2.4    1.8   -1.4
H     4.4    2.6    0.0
H     5.7   -0.1   -0.9
H     6.5    1.2    0.1
H     6.1    2.8   -1.8
H     5.3    1.5   -2.8
