          17
 frame:         2793
C     2.2   -1.1   -0.1
N     3.5   -0.6    0.1
N     3.8    0.7   -0.3
C     4.8    1.2    0.2
C     5.2    2.6   -0.1
C     6.2    3.3    0.3
C     6.6    4.7   -0.0
H     2.1   -2.2    0.1
H     1.8   -0.8   -1.1
H     1.5   -0.6    0.7
H     4.0   -1.0    0.9
H     5.5    0.7    0.9
H     4.5    3.1   -0.9
H     6.9    2.8    1.1
H     5.9    5.1   -0.8
H     7.6    4.7   -0.5
H     6.6    5.3    0.8
