          18
 frame:          229
C     2.5   -1.4   -0.7
C     1.9   -0.0   -0.1
C     3.0    1.0    0.3
C     3.8    0.6    1.5
C     3.6    1.8   -0.8
C     2.6    2.4    0.1
H     1.7   -2.0   -1.0
H     3.0   -1.9    0.1
H     3.2   -1.2   -1.5
H     1.2   -0.2    0.7
H     1.3    0.4   -0.9
H     4.5    1.4    1.8
H     4.4   -0.3    1.3
H     3.1    0.4    2.4
H     3.3    1.6   -1.8
H     4.7    2.1   -0.7
H     3.0    3.1    0.9
H     1.6    2.7   -0.3
