          15
 frame:         3215
C     1.0   -0.0   -0.1
C     2.5    0.1   -0.0
C     3.2    1.2    0.2
C     4.6    1.2   -0.1
C     5.3    0.0   -0.2
C     4.5   -1.2    0.1
O     3.1   -1.1   -0.3
H     0.7   -1.1   -0.3
H     0.6    0.7   -0.8
H     0.6    0.2    0.9
H     2.7    2.1    0.5
H     5.1    2.1   -0.2
H     6.3   -0.1   -0.5
H     4.9   -2.1   -0.4
H     4.5   -1.4    1.2
