          19
 frame:         2660
C     2.4   -0.4   -1.1
N     2.4    0.3    0.2
C     3.2    1.5    0.2
C     4.7    1.2    0.1
C     5.7    2.3    0.5
C     6.5    1.2    1.2
N     5.3    0.3    1.1
H     1.7   -1.2   -1.1
H     3.3   -0.8   -1.5
H     2.0    0.3   -1.9
H     2.7   -0.3    0.9
H     3.1    2.0    1.2
H     2.9    2.2   -0.5
H     5.0    0.9   -1.0
H     5.3    3.0    1.2
H     6.2    2.9   -0.3
H     7.4    0.9    0.6
H     6.9    1.4    2.2
H     5.5   -0.6    0.8
