          17
 frame:         3735
C     0.3   -0.3   -0.0
C     1.8    0.0   -0.3
C     2.3    1.2   -0.3
C     1.6    2.6   -0.2
O     3.7    1.3   -0.7
C     4.5    1.9    0.2
C     5.7    2.3   -0.1
H     0.2   -0.9    0.9
H    -0.1   -0.9   -0.9
H    -0.3    0.6    0.1
H     2.4   -0.8   -0.4
H     0.6    2.5    0.0
H     1.7    3.1   -1.2
H     2.1    3.2    0.6
H     4.1    1.9    1.2
H     6.1    2.2   -1.1
H     6.4    2.7    0.7
