          17
 frame:         4193
C     3.2   -1.2    0.6
O     2.4   -0.1    0.1
C     3.1    1.1   -0.0
C     4.4    1.3    0.2
C     5.0    2.7   -0.0
C     6.0    2.6   -1.2
O     5.4    2.3   -2.4
H     2.5   -2.1    0.7
H     3.6   -1.0    1.6
H     4.0   -1.5   -0.1
H     2.4    1.8   -0.4
H     5.1    0.5    0.6
H     5.5    3.0    0.9
H     4.2    3.4   -0.2
H     6.8    2.0   -0.9
H     6.4    3.7   -1.3
H     4.8    1.5   -2.2
