          14
 frame:         6560
O     1.6    0.2    1.0
C     2.5    0.0    0.3
C     2.9   -1.4   -0.4
N     4.3   -1.2   -0.8
C     4.7    0.2   -0.8
C     3.8    1.1   -1.6
C     3.6    1.0   -0.1
H     2.2   -1.5   -1.2
H     2.8   -2.2    0.4
H     4.9   -1.7   -0.1
H     5.7    0.4   -0.7
H     4.2    2.0   -2.0
H     3.0    0.6   -2.3
H     3.7    1.9    0.5
