          14
 frame:         1588
C     2.7    0.3    0.9
C     2.3    0.0   -0.6
C     2.5    1.5   -0.8
C     2.5    2.7   -1.4
C     3.0    3.7   -0.5
C     3.3    3.0    0.8
N     3.0    1.7    0.5
H     3.6   -0.2    1.2
H     1.9    0.2    1.7
H     1.2   -0.3   -0.7
H     2.9   -0.7   -1.1
H     2.3    3.0   -2.5
H     3.2    4.7   -0.6
H     3.6    3.4    1.7
