          16
 frame:         5106
C     1.3   -0.5   -0.1
C     2.8   -0.3    0.1
C     3.2    1.2   -0.0
C     4.7    1.5    0.1
O     5.1    2.8   -0.2
C     5.2    1.0    1.4
N     5.6    0.7    2.4
H     1.0   -1.5    0.0
H     0.9   -0.1   -1.0
H     0.7    0.1    0.8
H     3.3   -0.8   -0.7
H     3.1   -0.7    1.0
H     2.7    1.8    0.8
H     2.9    1.6   -1.0
H     5.2    0.9   -0.7
H     4.7    3.4    0.5
