          15
 frame:         3168
C     1.0    0.0   -0.0
C     2.4   -0.0   -0.0
C     3.3   -1.2    0.0
C     4.6   -0.4   -0.1
C     4.3    0.7   -1.2
C     3.3    1.1   -0.1
O     4.3    0.7    0.9
H     0.4   -0.9    0.0
H     0.5    0.9   -0.0
H     3.2   -1.9   -0.8
H     3.3   -1.8    1.0
H     5.6   -0.8    0.1
H     3.9    0.3   -2.1
H     5.2    1.4   -1.3
H     3.0    2.1    0.0
