          15
 frame:         3025
N     2.7    2.1    2.2
C     2.2    2.1    1.0
N     2.9    1.7   -0.1
C     4.4    1.5    0.0
C     5.2    2.8    0.0
C     5.0    3.5   -1.2
C     4.9    4.2   -2.2
H     2.0    2.3    2.9
H     1.2    2.3    0.8
H     2.5    2.0   -1.0
H     4.7    0.8   -0.8
H     4.5    0.9    0.9
H     6.2    2.5    0.2
H     4.9    3.4    0.9
H     4.8    4.7   -3.1
