          15
 frame:         3375
C     1.0    0.0   -0.1
C     2.5   -0.0    0.1
C     3.1    1.1    0.9
O     4.3    0.6    1.4
C     4.4   -0.8    1.3
O     5.3   -1.4    1.7
C     3.1   -1.3    0.7
H     0.6   -0.8   -0.7
H     0.6    1.0   -0.5
H     0.5   -0.1    0.9
H     2.9    0.1   -1.0
H     2.4    1.3    1.8
H     3.3    2.0    0.4
H     3.2   -2.1    0.0
H     2.4   -1.6    1.5
