          14
 frame:          809
C     1.0    0.2   -0.0
C     2.5    0.0   -0.1
C     3.0   -0.6   -1.4
O     2.6    0.2   -2.6
C     3.2    1.4    0.1
O     3.9    1.7    1.1
H     0.7    0.5    0.9
H     0.5   -0.8   -0.2
H     0.7    0.9   -0.8
H     2.9   -0.6    0.7
H     2.6   -1.6   -1.5
H     4.1   -0.6   -1.4
H     1.7    0.0   -2.7
H     3.0    2.1   -0.7
