          15
 frame:         2627
C     2.9   -1.1   -0.5
N     2.4    0.1    0.1
C     3.4    1.2    0.2
C     3.5    2.1   -1.0
C     2.8    2.6    0.2
C     3.5    3.6    1.1
N     4.0    4.4    1.7
H     2.1   -1.9   -0.5
H     3.8   -1.5    0.0
H     3.1   -0.9   -1.5
H     2.0   -0.1    1.1
H     4.3    1.0    0.7
H     2.8    1.9   -1.9
H     4.4    2.5   -1.3
H     1.7    2.7    0.2
