          20
 frame:         2364
C     0.8   -0.6    0.8
C     2.1   -0.6    0.0
C     2.3   -1.9   -0.8
N     2.1    0.6   -0.9
C     3.4    0.9   -1.5
C     3.4    2.1   -2.3
C     4.1    3.2   -2.1
H     0.7    0.3    1.4
H     0.8   -1.4    1.5
H    -0.1   -0.7    0.1
H     3.0   -0.6    0.7
H     1.4   -2.0   -1.5
H     2.2   -2.8   -0.1
H     3.2   -2.0   -1.3
H     1.8    1.4   -0.4
H     3.7    0.0   -2.1
H     4.2    1.0   -0.7
H     2.6    2.1   -3.1
H     4.9    3.2   -1.4
H     4.0    4.0   -2.8
