          17
 frame:         2955
N     1.0    0.3    0.1
C     2.5   -0.0   -0.1
C     2.7   -0.8   -1.4
C     1.8   -1.0   -2.3
C     3.2    1.3   -0.1
C     3.8    1.8    1.2
N     4.7    1.1    0.2
H     0.9    0.8    1.0
H     0.5   -0.6    0.2
H     2.9   -0.7    0.7
H     3.7   -1.1   -1.5
H     0.8   -0.7   -2.2
H     2.1   -1.6   -3.2
H     2.9    2.0   -0.8
H     3.6    1.3    2.1
H     3.8    2.9    1.3
H     5.2    1.8   -0.3
