          14
 frame:         6078
N     1.1   -0.2   -0.2
C     2.5   -0.0   -0.1
C     3.0    1.3    0.3
C     3.6    1.3    1.5
C     3.8   -0.1    1.9
O     4.6   -0.9    1.0
C     3.1   -1.0    0.9
H     0.7    0.2   -1.0
H     0.6    0.2    0.6
H     2.9   -0.3   -1.1
H     2.8    2.2   -0.3
H     4.0    2.2    2.0
H     3.9   -0.4    3.0
H     2.6   -1.9    1.1
