          17
 frame:         3965
C     2.3   -0.0   -0.5
C     2.2    1.3   -0.1
O     3.3    2.1    0.1
C     4.6    1.6   -0.2
C     5.6    2.8   -0.1
C     6.1    3.0    1.3
C     7.0    2.4    0.3
H     1.3   -0.6   -0.5
H     3.2   -0.5   -0.7
H     1.3    1.8    0.2
H     4.6    1.3   -1.3
H     4.8    0.8    0.4
H     5.4    3.6   -0.7
H     5.8    2.4    2.1
H     6.3    4.1    1.6
H     7.8    3.0   -0.2
H     7.2    1.3    0.4
