          16
 frame:          462
C     0.9   -0.1   -0.0
C     2.5    0.1   -0.0
C     3.1   -0.7   -1.2
C     2.8    1.5   -0.1
N     3.5    2.0    0.9
N     3.9    3.4    0.7
H     0.5    0.4    0.8
H     0.6   -1.2    0.0
H     0.5    0.3   -0.9
H     2.9   -0.3    0.9
H     2.8   -0.3   -2.1
H     2.8   -1.8   -1.1
H     4.2   -0.7   -1.1
H     2.5    2.1   -0.9
H     4.0    3.8    1.6
H     3.3    3.9    0.1
