          19
 frame:         2451
C     1.0    0.5    0.4
C     2.5    0.5    0.7
N     3.2    1.5   -0.2
C     4.6    1.6    0.1
C     5.5    0.7   -0.7
C     5.5    2.1   -1.1
N     6.7    2.9   -0.8
H     0.5   -0.3    1.0
H     0.8    0.3   -0.7
H     0.5    1.5    0.7
H     2.9   -0.4    0.4
H     2.7    0.7    1.8
H     2.8    2.5    0.0
H     5.0    1.8    1.1
H     5.0    0.0   -1.4
H     6.4    0.3   -0.2
H     4.9    2.4   -2.0
H     7.3    2.5   -0.1
H     6.4    3.9   -0.5
