          14
 frame:         6279
N     1.4    0.5    0.6
C     2.5   -0.0   -0.3
C     2.2    0.4   -1.7
C     2.2   -0.5   -2.7
C     3.8    0.6    0.1
O     3.7    1.7    0.9
O     4.9    0.2   -0.2
H     1.3   -0.2    1.4
H     0.5    0.5    0.2
H     2.6   -1.1   -0.2
H     1.9    1.4   -1.9
H     2.4   -1.5   -2.6
H     2.0   -0.1   -3.8
H     2.7    1.8    1.0
