          13
 frame:         1562
C     1.4    0.8    0.1
C     2.6   -0.3    0.0
C     3.5    0.9   -0.0
C     2.5    1.8    0.1
N     3.0    3.1    0.1
N     4.3    3.1   -0.0
C     4.7    1.8   -0.1
H     0.8    0.7    1.1
H     0.7    0.8   -0.7
H     2.5   -0.9   -0.9
H     2.7   -0.9    0.9
H     2.5    4.0    0.1
H     5.7    1.5   -0.2
