          17
 frame:         3239
C     0.9   -0.0    0.2
C     2.4   -0.0   -0.0
C     2.8    0.0   -1.5
C     3.2    1.1    0.8
C     4.1   -0.0    1.4
O     5.1   -0.0    2.0
C     3.2   -1.1    0.8
H     0.7   -0.0    1.2
H     0.5   -0.9   -0.3
H     0.4    0.9   -0.3
H     3.9    0.0   -1.6
H     2.4    0.9   -2.0
H     2.4   -0.9   -2.0
H     2.6    1.6    1.6
H     3.7    1.9    0.2
H     3.7   -1.9    0.2
H     2.6   -1.6    1.5
