          16
 frame:         6112
N     1.0    0.2   -0.3
C     2.4    0.0    0.2
C     3.2    1.2   -0.2
C     3.5    1.2   -1.7
O     4.3    0.0   -2.1
C     3.9   -1.1   -1.4
C     3.0   -1.2   -0.5
H     0.4    0.7    0.5
H     0.5   -0.7   -0.4
H     2.4   -0.1    1.3
H     2.6    2.2   -0.0
H     4.2    1.3    0.3
H     4.1    2.0   -2.1
H     2.5    1.1   -2.3
H     4.4   -2.0   -1.9
H     2.7   -2.2   -0.1
