          18
 frame:         5616
C     1.0    0.0    0.2
N     2.4    0.0   -0.0
C     2.9   -1.3   -0.6
C     2.7   -1.4   -2.1
O     3.2   -0.3   -2.8
C     2.7    0.9   -2.4
C     2.9    1.1   -0.9
H     0.7    1.0    0.7
H     0.7   -0.8    0.9
H     0.3   -0.1   -0.7
H     2.5   -2.1   -0.0
H     4.0   -1.3   -0.4
H     3.1   -2.4   -2.5
H     1.6   -1.5   -2.3
H     3.1    1.7   -3.0
H     1.6    0.9   -2.6
H     4.0    1.2   -0.7
H     2.5    2.0   -0.6
