          19
 frame:         2584
C     1.2   -0.0   -0.1
N     2.7    0.1   -0.1
C     3.4   -0.6   -1.3
C     3.3    0.9   -1.2
C     2.5    1.8   -2.1
C     4.5    1.7   -0.6
N     5.5    2.0   -1.7
H     0.8    0.8    0.5
H     1.0   -0.9    0.5
H     0.7   -0.1   -1.1
H     2.7   -1.0   -2.0
H     4.3   -1.1   -1.0
H     1.7    1.2   -2.6
H     3.1    2.2   -2.9
H     2.0    2.6   -1.6
H     5.0    1.1    0.2
H     4.2    2.6   -0.2
H     5.9    1.1   -2.0
H     6.2    2.5   -1.4
