          16
 frame:         4605
C    -1.2   -0.0    1.0
C    -0.6   -1.0    0.0
C     0.9   -1.2    0.3
O     1.4   -0.0    0.8
C     0.9    1.2    0.3
C    -0.6    1.0    0.0
N    -0.7    0.0   -1.1
H    -0.8   -0.0    2.0
H    -2.3   -0.0    1.0
H    -1.1   -2.0   -0.2
H     1.0   -2.0    1.0
H     1.4   -1.5   -0.7
H     1.4    1.5   -0.7
H     1.0    2.0    1.1
H    -1.1    2.0   -0.2
H    -1.7    0.0   -1.4
