          18
 frame:         5701
C     2.0   -0.6    0.6
N     3.4   -0.6    0.5
C     3.9    0.6   -0.2
C     5.4    0.7   -0.2
C     6.1   -0.4   -1.0
C     5.9    2.0   -0.6
O     5.3    3.0   -0.9
H     1.6   -1.5    1.1
H     1.4   -0.5   -0.3
H     1.6    0.2    1.3
H     3.7   -1.4    0.0
H     3.5    1.5    0.4
H     3.5    0.7   -1.2
H     5.8    0.6    0.9
H     5.7   -0.4   -2.0
H     5.9   -1.4   -0.6
H     7.2   -0.3   -1.1
H     7.1    2.1   -0.7
