          13
 frame:         7075
C     1.0    0.0   -0.0
N     2.5   -0.0   -0.0
C     3.3    1.1    0.0
C     4.6    0.8    0.0
S     4.9   -0.9    0.0
C     3.1   -1.3   -0.0
N     2.7   -2.5   -0.0
H     0.7    1.1   -0.0
H     0.6   -0.5    0.9
H     0.6   -0.5   -0.9
H     2.8    2.1    0.0
H     5.4    1.5    0.0
H     1.6   -2.5   -0.0
