          16
 frame:          714
C     3.1   -1.2   -0.5
C     2.5    0.0    0.2
C     3.4    1.2    0.2
C     3.5    2.1   -1.0
C     2.8    2.6    0.2
O     3.4    3.7    1.0
H     2.4   -2.0   -0.5
H     4.0   -1.5    0.1
H     3.4   -1.0   -1.5
H     2.1   -0.2    1.2
H     1.5    0.3   -0.4
H     4.3    1.1    0.8
H     2.9    1.9   -1.9
H     4.5    2.5   -1.3
H     1.8    2.8    0.1
H     4.3    3.6    1.0
