          14
 frame:          841
C     1.1   -0.4    0.6
C     2.2   -0.1   -0.5
O     2.0   -1.0   -1.6
C     2.2    1.3   -1.0
C     3.4    1.6   -1.9
O     4.1    2.5   -1.8
H     1.2    0.3    1.5
H     1.1   -1.4    0.9
H     0.1   -0.1    0.1
H     3.1   -0.4   -0.0
H     2.0   -1.9   -1.3
H     2.3    2.0   -0.1
H     1.3    1.5   -1.5
H     3.4    0.9   -2.8
