          21
 frame:         2707
C     0.9   -0.4    0.4
N     2.3   -0.7    0.2
C     2.4   -1.7   -0.9
C     3.1    0.5    0.0
C     4.6    0.2    0.1
C     5.1   -0.4    1.4
N     6.6   -0.4    1.4
H     0.8    0.3    1.3
H     0.3   -1.3    0.6
H     0.5    0.1   -0.5
H     1.8   -2.5   -0.7
H     3.5   -2.0   -1.0
H     2.1   -1.2   -1.9
H     2.9    1.2    0.8
H     2.9    1.0   -0.9
H     5.1    1.2   -0.1
H     4.9   -0.4   -0.8
H     4.6   -1.4    1.5
H     4.8    0.3    2.2
H     6.9   -1.1    0.7
H     6.9   -0.8    2.3
