          22
 frame:         2140
C     1.0   -0.1    0.1
C     2.5    0.0   -0.1
C     3.0   -0.8   -1.3
C     3.0    1.5   -0.0
C     2.7    2.3   -1.3
C     2.5    2.2    1.2
N     4.5    1.4    0.0
H     0.6    0.3    1.0
H     0.7   -1.2    0.0
H     0.5    0.4   -0.8
H     2.9   -0.5    0.9
H     2.5   -0.5   -2.2
H     2.8   -1.9   -1.1
H     4.1   -0.6   -1.4
H     3.1    1.8   -2.2
H     3.0    3.3   -1.2
H     1.6    2.3   -1.4
H     2.7    1.7    2.1
H     1.4    2.4    1.1
H     3.0    3.2    1.3
H     4.8    1.0    0.9
H     4.9    2.4    0.0
