          15
 frame:         4325
O     1.3   -0.0    0.7
C     2.5   -0.1   -0.1
C     2.6   -1.3   -1.0
C     3.5   -0.8   -2.1
C     3.6    0.5   -2.1
C     2.9    1.2   -0.9
O     3.5    2.2   -0.3
H     1.3    0.8    1.2
H     3.4   -0.1    0.7
H     1.6   -1.5   -1.3
H     3.0   -2.2   -0.5
H     3.9   -1.5   -2.9
H     4.1    1.1   -2.9
H     1.9    1.6   -1.3
H     4.5    1.9   -0.1
