          17
 frame:         3500
C     2.3   -0.5   -1.6
C     2.4    0.1   -0.2
C     3.4    1.2   -0.1
C     3.6    1.7    1.4
O     3.4    3.2    1.4
C     3.0    3.5    0.1
C     3.0    2.5   -0.7
H     1.6   -1.4   -1.6
H     3.2   -0.8   -2.0
H     1.8    0.3   -2.2
H     2.8   -0.8    0.5
H     1.5    0.4    0.2
H     4.4    0.9   -0.5
H     4.6    1.6    1.8
H     2.9    1.3    2.1
H     2.7    4.6    0.0
H     2.7    2.6   -1.8
