          15
 frame:         4405
O     1.0    0.2    0.4
C     2.2    0.3    0.5
C     3.0    1.4   -0.2
C     2.4    2.7   -0.3
C     3.2    3.6    0.6
C     4.0    2.6    1.4
O     4.2    1.5    0.5
H     2.8   -0.5    1.0
H     3.3    1.0   -1.2
H     1.3    2.7    0.1
H     2.3    3.1   -1.3
H     3.9    4.2    0.0
H     2.6    4.3    1.2
H     5.0    3.0    1.8
H     3.4    2.3    2.3
