          15
 frame:         6451
N     0.8    1.7   -0.0
N     2.2    1.7    0.3
C     3.1    1.0   -0.4
O     2.8    0.2   -1.3
C     4.6    1.2   -0.1
C     5.5    0.1   -0.2
C     5.6    1.2   -1.2
H     0.4    1.0    0.5
H     0.8    1.4   -1.0
H     2.5    2.5    0.8
H     4.8    1.9    0.8
H     5.1   -0.8   -0.6
H     6.3   -0.0    0.5
H     6.4    1.9   -1.1
H     5.2    1.1   -2.2
