          19
 frame:         3999
C     3.2   -1.5   -1.0
C     2.8   -0.5    0.1
O     2.9   -1.1    1.4
C     3.6    0.8    0.1
C     5.1    0.7    0.3
C     6.0    0.6   -0.9
C     5.6    0.6    1.5
H     3.0   -1.1   -2.0
H     2.5   -2.4   -0.9
H     4.2   -1.9   -0.9
H     1.8   -0.3   -0.0
H     3.9   -1.2    1.6
H     3.2    1.5    0.8
H     3.4    1.3   -0.9
H     5.7   -0.2   -1.6
H     7.0    0.4   -0.7
H     5.9    1.5   -1.5
H     5.0    0.7    2.4
H     6.7    0.5    1.7
