          16
 frame:         6111
N     1.0    0.0   -0.0
C     2.5   -0.0   -0.0
C     3.0   -1.3    0.6
C     3.3   -0.9    2.1
O     4.5   -1.5    2.6
C     3.4    0.6    2.0
C     3.0    1.1    0.9
H     0.6   -0.7   -0.8
H     0.6    0.9   -0.3
H     2.9    0.1   -1.1
H     3.9   -1.6    0.1
H     2.2   -2.1    0.6
H     2.6   -1.2    2.8
H     5.3   -1.2    2.0
H     3.8    1.2    2.9
H     2.9    2.1    0.6
