          18
 frame:         2903
N     2.5   -0.4   -1.6
C     2.5   -0.0   -0.2
C     3.3    1.3    0.0
C     3.4    1.7    1.5
C     3.4    3.3    1.5
C     2.8    3.6    0.1
C     2.7    2.5   -0.7
H     1.9   -1.2   -1.8
H     3.4   -0.7   -1.9
H     2.8   -0.8    0.5
H     1.4    0.2    0.1
H     4.3    1.1   -0.4
H     4.2    1.3    2.0
H     2.5    1.4    2.0
H     4.4    3.7    1.6
H     2.8    3.7    2.3
H     2.5    4.6   -0.1
H     2.4    2.5   -1.7
