          18
 frame:         1819
C     1.0    0.1    0.2
C     2.5   -0.1   -0.1
C     2.9   -1.5   -0.6
N     2.8   -1.4   -2.0
C     3.4   -0.1   -2.4
C     2.3    1.0   -2.5
C     3.1    0.8   -1.2
H     0.8    1.1    0.4
H     0.7   -0.5    1.0
H     0.4   -0.2   -0.7
H     3.0    0.1    0.8
H     2.1   -2.3   -0.2
H     3.9   -1.8   -0.2
H     3.4   -2.1   -2.5
H     4.3   -0.0   -3.0
H     2.5    1.9   -3.1
H     1.3    0.7   -2.6
H     3.8    1.6   -0.9
