          15
 frame:         3824
C     1.9   -0.9   -1.0
C     1.7    0.1    0.1
C     2.6    1.3    0.0
C     2.2    2.6   -0.1
O     4.0    1.0   -0.0
C     4.6    0.5    1.1
O     4.1    0.4    2.2
H     1.2   -1.8   -0.9
H     2.9   -1.3   -1.1
H     1.7   -0.4   -2.0
H     1.9   -0.4    1.1
H     0.7    0.5    0.2
H     1.2    2.8   -0.2
H     3.0    3.4   -0.2
H     5.7    0.3    0.9
