          20
 frame:         2337
C     0.9   -0.1   -0.4
C     2.4   -0.2   -0.5
C     3.1    0.7    0.6
N     4.5    0.6    0.5
C     5.2    1.6   -0.4
C     5.3    1.7    1.1
C     6.6    1.4    1.8
H     0.4   -0.8   -1.2
H     0.5    0.9   -0.5
H     0.5   -0.5    0.6
H     2.7    0.2   -1.5
H     2.8   -1.2   -0.4
H     2.8    0.3    1.6
H     2.7    1.7    0.5
H     4.5    2.3   -0.9
H     6.0    1.2   -1.0
H     4.7    2.5    1.5
H     7.1    0.6    1.3
H     6.3    1.1    2.9
H     7.2    2.3    1.9
